@<TRIPOS>MOLECULE
RES
27 0 1 0 1
SMALL
NO_CHARGES
@<TRIPOS>CRYSIN
   11.7180    11.7180    11.7180    90.0000    90.0000    90.0000  1  1
@<TRIPOS>ATOM
       1 Te           0.0000     0.0000     0.0000 Te            1 RES     
       2 Se          -0.0000     0.0000     3.3590 Se            1 RES     
       3 Po          -0.0000     0.0000     6.7180 Po            1 RES     
       4 Po          -3.3590     0.0000    -0.0000 Po            1 RES     
       5 Po          -3.3590     0.0000     3.3590 Po            1 RES     
       6 Po          -3.3590     0.0000     6.7180 Po            1 RES     
       7 Po          -6.7180     0.0000    -0.0000 Po            1 RES     
       8 Po          -6.7180     0.0000     3.3590 Po            1 RES     
       9 Po          -6.7180     0.0000     6.7180 Po            1 RES     
      10 Po           0.0000     3.3590     0.0000 Po            1 RES     
      11 Po          -0.0000     3.3590     3.3590 Po            1 RES     
      12 Po          -0.0000     3.3590     6.7180 Po            1 RES     
      13 Po          -3.3590     3.3590    -0.0000 Po            1 RES     
      14 Lv          -3.3590     3.3590     3.3590 Lv            1 RES     
      15 Po          -3.3590     3.3590     6.7180 Po            1 RES     
      16 Po          -6.7180     3.3590    -0.0000 Po            1 RES     
      17 Po          -6.7180     3.3590     3.3590 Po            1 RES     
      18 Po          -6.7180     3.3590     6.7180 Po            1 RES     
      19 Po           0.0000     6.7180     0.0000 Po            1 RES     
      20 Po          -0.0000     6.7180     3.3590 Po            1 RES     
      21 Po          -0.0000     6.7180     6.7180 Po            1 RES     
      22 Po          -3.3590     6.7180    -0.0000 Po            1 RES     
      23 Po          -3.3590     6.7180     3.3590 Po            1 RES     
      24 Po          -3.3590     6.7180     6.7180 Po            1 RES     
      25 Po          -6.7180     6.7180    -0.0000 Po            1 RES     
      26 Po          -6.7180     6.7180     3.3590 Po            1 RES     
      27 Po          -6.7180     6.7180     6.7180 Po            1 RES     
@<TRIPOS>BOND
@<TRIPOS>SUBSTRUCTURE
       1 RES             1 RESIDUE    0 **** ROOT      0
