@<TRIPOS>MOLECULE
RES
51 50 1 0 1
SMALL
NO_CHARGES
@<TRIPOS>CRYSIN
    7.4870     7.0753    26.2343    90.0000    90.0000    90.0000  1  1
@<TRIPOS>ATOM
       1 C           -0.0000    -0.0000   -19.9873 C             1 RES     
       2 H           -0.0883     1.0664   -19.9873 H             1 RES     
       3 H           -0.0604    -0.3632   -20.9921 H             1 RES     
       4 H            0.9420    -0.2803   -19.5627 H             1 RES     
       5 C           -0.8320    -0.0689    -1.1794 C             1 RES     
       6 H           -1.5323     0.7664    -1.1790 H             1 RES     
       7 H           -1.3855    -1.0078    -1.1790 H             1 RES     
       8 C            0.0529     0.0044    -2.4377 C             1 RES     
       9 H            0.7533    -0.8308    -2.4382 H             1 RES     
      10 H            0.6064     0.9434    -2.4382 H             1 RES     
      11 C           -0.8338    -0.0690    -3.6947 C             1 RES     
      12 H           -1.5342     0.7662    -3.6942 H             1 RES     
      13 H           -1.3873    -1.0080    -3.6942 H             1 RES     
      14 C            0.0511     0.0042    -4.9530 C             1 RES     
      15 H            0.7514    -0.8310    -4.9534 H             1 RES     
      16 H            0.6046     0.9432    -4.9534 H             1 RES     
      17 C           -0.8356    -0.0692    -6.2100 C             1 RES     
      18 H           -1.5360     0.7661    -6.2095 H             1 RES     
      19 H           -1.3891    -1.0081    -6.2095 H             1 RES     
      20 C            0.0493     0.0041    -7.4682 C             1 RES     
      21 H            0.7496    -0.8311    -7.4687 H             1 RES     
      22 H            0.6028     0.9431    -7.4687 H             1 RES     
      23 C           -0.8374    -0.0693    -8.7252 C             1 RES     
      24 H           -1.5378     0.7659    -8.7248 H             1 RES     
      25 H           -1.3909    -1.0083    -8.7248 H             1 RES     
      26 C            0.0475     0.0039    -9.9835 C             1 RES     
      27 H            0.7478    -0.8313    -9.9839 H             1 RES     
      28 H            0.6010     0.9429    -9.9839 H             1 RES     
      29 C           -0.8392    -0.0695   -11.2405 C             1 RES     
      30 H           -1.5396     0.7658   -11.2400 H             1 RES     
      31 H           -1.3927    -1.0084   -11.2400 H             1 RES     
      32 C            0.0457     0.0038   -12.4987 C             1 RES     
      33 H            0.7460    -0.8314   -12.4992 H             1 RES     
      34 H            0.5992     0.9428   -12.4992 H             1 RES     
      35 C           -0.8410    -0.0696   -13.7557 C             1 RES     
      36 H           -1.5414     0.7656   -13.7553 H             1 RES     
      37 H           -1.3946    -1.0086   -13.7553 H             1 RES     
      38 C            0.0438     0.0036   -15.0140 C             1 RES     
      39 H            0.7442    -0.8316   -15.0144 H             1 RES     
      40 H            0.5974     0.9426   -15.0144 H             1 RES     
      41 C           -0.8428    -0.0698   -16.2710 C             1 RES     
      42 H           -1.5432     0.7655   -16.2705 H             1 RES     
      43 H           -1.3964    -1.0087   -16.2705 H             1 RES     
      44 C            0.0420     0.0035   -17.5292 C             1 RES     
      45 H            0.7424    -0.8317   -17.5297 H             1 RES     
      46 H            0.5956     0.9425   -17.5297 H             1 RES     
      47 C           -0.8446    -0.0699   -18.7862 C             1 RES     
      48 H           -1.5450     0.7653   -18.7858 H             1 RES     
      49 H           -1.3982    -1.0089   -18.7858 H             1 RES     
      50 OA           0.0000     0.0000     0.0000 OA            1 RES     
      51 H            0.2461    -0.8958     0.2421 H             1 RES     
@<TRIPOS>BOND
       1        1        4 1
       2       29       31 1
       3       17       20 1
       4       17       18 1
       5       44       47 1
       6       20       22 1
       7       10        8 1
       8       29       32 1
       9       41       38 1
      10       23       25 1
      11        5        7 1
      12       35       36 1
      13        1        3 1
      14       32       33 1
      15       38       39 1
      16        8        9 1
      17       11        8 1
      18        1       47 1
      19       47       48 1
      20       50       51 1
      21       17       14 1
      22       38       40 1
      23        2        1 1
      24       29       30 1
      25       35       32 1
      26       26       27 1
      27       44       45 1
      28        5       50 1
      29       38       35 1
      30       47       49 1
      31       23       24 1
      32       14       16 1
      33       26       28 1
      34       32       34 1
      35       14       15 1
      36       17       19 1
      37       20       23 1
      38       11       12 1
      39       29       26 1
      40       41       44 1
      41       20       21 1
      42       26       23 1
      43       35       37 1
      44       41       43 1
      45       41       42 1
      46       44       46 1
      47        5        8 1
      48       11       14 1
      49        6        5 1
      50       11       13 1
@<TRIPOS>SUBSTRUCTURE
       1 RES             1 RESIDUE    0 **** ROOT      0
