@<TRIPOS>MOLECULE
RES
3 2 1 0 1
SMALL
NO_CHARGES
@<TRIPOS>CRYSIN
    6.7803     5.0000     5.6291    90.0000    90.0000    90.0000  1  1
@<TRIPOS>ATOM
       1 C            0.0000     0.0000     0.0000 C             1 RES     
       2 H           -0.8901     0.0000     0.6291 H             1 RES     
       3 H            0.8901     0.0000     0.6291 H             1 RES     
@<TRIPOS>BOND
       1        1        2 1
       2        1        3 1
@<TRIPOS>SUBSTRUCTURE
       1 RES             1 RESIDUE    0 **** ROOT      0
