@<TRIPOS>MOLECULE
RES
12 12 1 0 1
SMALL
NO_CHARGES
@<TRIPOS>CRYSIN
    9.2988     9.9629     5.0000    90.0000    90.0000    90.0000  1  1
@<TRIPOS>ATOM
       1 F           -0.1172     2.3334     0.0000 F             1 RES     
       2 C            1.0904     1.6367    -0.0000 C             1 RES     
       3 O            1.0908     0.2425    -0.0000 O             1 RES     
       4 C           -0.1164    -0.4549    -0.0000 C             1 RES     
       5 C           -1.3240     0.2418    -0.0000 C             1 RES     
       6 C           -1.3244     1.6360     0.0000 C             1 RES     
       7 H           -0.1175     3.4207     0.0000 H             1 RES     
       8 H            2.0319     2.1806    -0.0000 H             1 RES     
       9 H            2.0326    -0.3009    -0.0000 H             1 RES     
      10 H           -0.1161    -1.5422    -0.0000 H             1 RES     
      11 H           -2.2654    -0.3021    -0.0000 H             1 RES     
      12 H           -2.2662     2.1793     0.0000 H             1 RES     
@<TRIPOS>BOND
       1        4        3 1
       2        6       12 1
       3        5        6 1
       4        1        6 1
       5        1        7 1
       6        5       11 1
       7        2        1 1
       8        4       10 1
       9        4        5 1
      10        3        9 1
      11        2        8 1
      12        2        3 1
@<TRIPOS>SUBSTRUCTURE
       1 RES             1 RESIDUE    0 **** ROOT      0
