@<TRIPOS>MOLECULE
RES
135 108 1 0 1
SMALL
NO_CHARGES
@<TRIPOS>CRYSIN
   13.7180    13.7180    13.1180    90.0000    90.0000    90.0000  1  1
@<TRIPOS>ATOM
       1 C            0.0000     0.0000     0.0000 C             1 RES     
       2 H            1.0000     0.0000    -0.7000 H             1 RES     
       3 O           -1.0000     0.0000    -0.7000 O             1 RES     
       4 F            0.0000     1.0000     0.7000 F             1 RES     
       5 N            0.0000    -1.0000     0.7000 N             1 RES     
       6 C            0.0000     0.0000     3.3590 C             1 RES     
       7 H            1.0000     0.0000     2.6590 H             1 RES     
       8 O           -1.0000     0.0000     2.6590 O             1 RES     
       9 F            0.0000     1.0000     4.0590 F             1 RES     
      10 N            0.0000    -1.0000     4.0590 N             1 RES     
      11 C            0.0000     0.0000     6.7180 C             1 RES     
      12 H            1.0000     0.0000     6.0180 H             1 RES     
      13 O           -1.0000     0.0000     6.0180 O             1 RES     
      14 F            0.0000     1.0000     7.4180 F             1 RES     
      15 N            0.0000    -1.0000     7.4180 N             1 RES     
      16 C            0.0000     3.3590     0.0000 C             1 RES     
      17 H            1.0000     3.3590    -0.7000 H             1 RES     
      18 O           -1.0000     3.3590    -0.7000 O             1 RES     
      19 F            0.0000     4.3590     0.7000 F             1 RES     
      20 N            0.0000     2.3590     0.7000 N             1 RES     
      21 C            0.0000     3.3590     3.3590 C             1 RES     
      22 H            1.0000     3.3590     2.6590 H             1 RES     
      23 O           -1.0000     3.3590     2.6590 O             1 RES     
      24 F            0.0000     4.3590     4.0590 F             1 RES     
      25 N            0.0000     2.3590     4.0590 N             1 RES     
      26 C            0.0000     3.3590     6.7180 C             1 RES     
      27 H            1.0000     3.3590     6.0180 H             1 RES     
      28 O           -1.0000     3.3590     6.0180 O             1 RES     
      29 F            0.0000     4.3590     7.4180 F             1 RES     
      30 N            0.0000     2.3590     7.4180 N             1 RES     
      31 C            0.0000     6.7180     0.0000 C             1 RES     
      32 H            1.0000     6.7180    -0.7000 H             1 RES     
      33 O           -1.0000     6.7180    -0.7000 O             1 RES     
      34 F            0.0000     7.7180     0.7000 F             1 RES     
      35 N            0.0000     5.7180     0.7000 N             1 RES     
      36 C            0.0000     6.7180     3.3590 C             1 RES     
      37 H            1.0000     6.7180     2.6590 H             1 RES     
      38 O           -1.0000     6.7180     2.6590 O             1 RES     
      39 F            0.0000     7.7180     4.0590 F             1 RES     
      40 N            0.0000     5.7180     4.0590 N             1 RES     
      41 C            0.0000     6.7180     6.7180 C             1 RES     
      42 H            1.0000     6.7180     6.0180 H             1 RES     
      43 O           -1.0000     6.7180     6.0180 O             1 RES     
      44 F            0.0000     7.7180     7.4180 F             1 RES     
      45 N            0.0000     5.7180     7.4180 N             1 RES     
      46 C            3.3590     0.0000     0.0000 C             1 RES     
      47 H            4.3590     0.0000    -0.7000 H             1 RES     
      48 O            2.3590     0.0000    -0.7000 O             1 RES     
      49 F            3.3590     1.0000     0.7000 F             1 RES     
      50 N            3.3590    -1.0000     0.7000 N             1 RES     
      51 C            3.3590     0.0000     3.3590 C             1 RES     
      52 H            4.3590     0.0000     2.6590 H             1 RES     
      53 O            2.3590     0.0000     2.6590 O             1 RES     
      54 F            3.3590     1.0000     4.0590 F             1 RES     
      55 N            3.3590    -1.0000     4.0590 N             1 RES     
      56 C            3.3590     0.0000     6.7180 C             1 RES     
      57 H            4.3590     0.0000     6.0180 H             1 RES     
      58 O            2.3590     0.0000     6.0180 O             1 RES     
      59 F            3.3590     1.0000     7.4180 F             1 RES     
      60 N            3.3590    -1.0000     7.4180 N             1 RES     
      61 C            3.3590     3.3590     0.0000 C             1 RES     
      62 H            4.3590     3.3590    -0.7000 H             1 RES     
      63 O            2.3590     3.3590    -0.7000 O             1 RES     
      64 F            3.3590     4.3590     0.7000 F             1 RES     
      65 N            3.3590     2.3590     0.7000 N             1 RES     
      66 C            3.3590     3.3590     3.3590 C             1 RES     
      67 H            4.3590     3.3590     2.6590 H             1 RES     
      68 O            2.3590     3.3590     2.6590 O             1 RES     
      69 F            3.3590     4.3590     4.0590 F             1 RES     
      70 N            3.3590     2.3590     4.0590 N             1 RES     
      71 C            3.3590     3.3590     6.7180 C             1 RES     
      72 H            4.3590     3.3590     6.0180 H             1 RES     
      73 O            2.3590     3.3590     6.0180 O             1 RES     
      74 F            3.3590     4.3590     7.4180 F             1 RES     
      75 N            3.3590     2.3590     7.4180 N             1 RES     
      76 C            3.3590     6.7180     0.0000 C             1 RES     
      77 H            4.3590     6.7180    -0.7000 H             1 RES     
      78 O            2.3590     6.7180    -0.7000 O             1 RES     
      79 F            3.3590     7.7180     0.7000 F             1 RES     
      80 N            3.3590     5.7180     0.7000 N             1 RES     
      81 C            3.3590     6.7180     3.3590 C             1 RES     
      82 H            4.3590     6.7180     2.6590 H             1 RES     
      83 O            2.3590     6.7180     2.6590 O             1 RES     
      84 F            3.3590     7.7180     4.0590 F             1 RES     
      85 N            3.3590     5.7180     4.0590 N             1 RES     
      86 C            3.3590     6.7180     6.7180 C             1 RES     
      87 H            4.3590     6.7180     6.0180 H             1 RES     
      88 O            2.3590     6.7180     6.0180 O             1 RES     
      89 F            3.3590     7.7180     7.4180 F             1 RES     
      90 N            3.3590     5.7180     7.4180 N             1 RES     
      91 C            6.7180     0.0000     0.0000 C             1 RES     
      92 H            7.7180     0.0000    -0.7000 H             1 RES     
      93 O            5.7180     0.0000    -0.7000 O             1 RES     
      94 F            6.7180     1.0000     0.7000 F             1 RES     
      95 N            6.7180    -1.0000     0.7000 N             1 RES     
      96 C            6.7180     0.0000     3.3590 C             1 RES     
      97 H            7.7180     0.0000     2.6590 H             1 RES     
      98 O            5.7180     0.0000     2.6590 O             1 RES     
      99 F            6.7180     1.0000     4.0590 F             1 RES     
     100 N            6.7180    -1.0000     4.0590 N             1 RES     
     101 C            6.7180     0.0000     6.7180 C             1 RES     
     102 H            7.7180     0.0000     6.0180 H             1 RES     
     103 O            5.7180     0.0000     6.0180 O             1 RES     
     104 F            6.7180     1.0000     7.4180 F             1 RES     
     105 N            6.7180    -1.0000     7.4180 N             1 RES     
     106 C            6.7180     3.3590     0.0000 C             1 RES     
     107 H            7.7180     3.3590    -0.7000 H             1 RES     
     108 O            5.7180     3.3590    -0.7000 O             1 RES     
     109 F            6.7180     4.3590     0.7000 F             1 RES     
     110 N            6.7180     2.3590     0.7000 N             1 RES     
     111 C            6.7180     3.3590     3.3590 C             1 RES     
     112 H            7.7180     3.3590     2.6590 H             1 RES     
     113 O            5.7180     3.3590     2.6590 O             1 RES     
     114 F            6.7180     4.3590     4.0590 F             1 RES     
     115 N            6.7180     2.3590     4.0590 N             1 RES     
     116 C            6.7180     3.3590     6.7180 C             1 RES     
     117 H            7.7180     3.3590     6.0180 H             1 RES     
     118 O            5.7180     3.3590     6.0180 O             1 RES     
     119 F            6.7180     4.3590     7.4180 F             1 RES     
     120 N            6.7180     2.3590     7.4180 N             1 RES     
     121 C            6.7180     6.7180     0.0000 C             1 RES     
     122 H            7.7180     6.7180    -0.7000 H             1 RES     
     123 O            5.7180     6.7180    -0.7000 O             1 RES     
     124 F            6.7180     7.7180     0.7000 F             1 RES     
     125 N            6.7180     5.7180     0.7000 N             1 RES     
     126 C            6.7180     6.7180     3.3590 C             1 RES     
     127 H            7.7180     6.7180     2.6590 H             1 RES     
     128 O            5.7180     6.7180     2.6590 O             1 RES     
     129 F            6.7180     7.7180     4.0590 F             1 RES     
     130 N            6.7180     5.7180     4.0590 N             1 RES     
     131 C            6.7180     6.7180     6.7180 C             1 RES     
     132 H            7.7180     6.7180     6.0180 H             1 RES     
     133 O            5.7180     6.7180     6.0180 O             1 RES     
     134 F            6.7180     7.7180     7.4180 F             1 RES     
     135 N            6.7180     5.7180     7.4180 N             1 RES     
@<TRIPOS>BOND
       1       36       38 1
       2       66       68 1
       3       96       98 1
       4      126      128 1
       5       41       43 1
       6       71       73 1
       7      101      103 1
       8      131      133 1
       9       96      100 1
      10       36       40 1
      11       66       70 1
      12      126      130 1
      13        6        8 1
      14        1        3 1
      15       16       19 1
      16       46       49 1
      17       76       79 1
      18      106      109 1
      19       76       78 1
      20       46       48 1
      21       61       65 1
      22       91       95 1
      23       16       18 1
      24       31       35 1
      25      106      108 1
      26      121      125 1
      27        1        5 1
      28        1        4 1
      29       41       44 1
      30       71       74 1
      31      101      104 1
      32      131      134 1
      33       27       26 1
      34       57       56 1
      35       87       86 1
      36      117      116 1
      37       42       41 1
      38       72       71 1
      39      102      101 1
      40      132      131 1
      41       41       45 1
      42       71       75 1
      43       26       28 1
      44       56       58 1
      45       86       88 1
      46      101      105 1
      47      116      118 1
      48      131      135 1
      49       76       80 1
      50       81       84 1
      51       16       20 1
      52       21       24 1
      53       46       50 1
      54       51       54 1
      55      106      110 1
      56      111      114 1
      57       11       15 1
      58       31       32 1
      59       61       62 1
      60       91       92 1
      61      121      122 1
      62       11       14 1
      63       22       21 1
      64       52       51 1
      65       82       81 1
      66      112      111 1
      67        1        2 1
      68       21       25 1
      69       51       55 1
      70       81       85 1
      71      111      115 1
      72        6       10 1
      73       17       16 1
      74       47       46 1
      75       77       76 1
      76      107      106 1
      77       26       29 1
      78       56       59 1
      79       86       89 1
      80      116      119 1
      81       31       33 1
      82        6        7 1
      83       61       63 1
      84       91       93 1
      85      121      123 1
      86       37       36 1
      87       67       66 1
      88       97       96 1
      89      127      126 1
      90       21       23 1
      91       51       53 1
      92       81       83 1
      93      111      113 1
      94       12       11 1
      95       26       30 1
      96       56       60 1
      97       86       90 1
      98      116      120 1
      99       36       39 1
     100       66       69 1
     101       96       99 1
     102      126      129 1
     103        6        9 1
     104       31       34 1
     105       61       64 1
     106       91       94 1
     107      121      124 1
     108       11       13 1
@<TRIPOS>SUBSTRUCTURE
       1 RES             1 RESIDUE    0 **** ROOT      0
