@<TRIPOS>MOLECULE
RES
135 108 1 0 1
SMALL
NO_CHARGES
@<TRIPOS>CRYSIN
   13.7180    13.7180    13.1180    90.0000    90.0000    90.0000  1  1
@<TRIPOS>ATOM
       1 C            0.0000     0.0000     0.0000 C             1 RES     
       2 H            1.0000     0.0000    -0.7000 H             1 RES     
       3 O           -1.0000     0.0000    -0.7000 O             1 RES     
       4 F            0.0000     1.0000     0.7000 F             1 RES     
       5 N            0.0000    -1.0000     0.7000 N             1 RES     
       6 C            0.0000     0.0000     3.3590 C             1 RES     
       7 H            1.0000     0.0000     2.6590 H             1 RES     
       8 O           -1.0000     0.0000     2.6590 O             1 RES     
       9 F            0.0000     1.0000     4.0590 F             1 RES     
      10 N            0.0000    -1.0000     4.0590 N             1 RES     
      11 C            0.0000     0.0000     6.7180 C             1 RES     
      12 H            1.0000     0.0000     6.0180 H             1 RES     
      13 O           -1.0000     0.0000     6.0180 O             1 RES     
      14 F            0.0000     1.0000     7.4180 F             1 RES     
      15 N            0.0000    -1.0000     7.4180 N             1 RES     
      16 C            0.0000     3.3590     0.0000 C             1 RES     
      17 H            1.0000     3.3590    -0.7000 H             1 RES     
      18 O           -1.0000     3.3590    -0.7000 O             1 RES     
      19 F            0.0000     4.3590     0.7000 F             1 RES     
      20 N            0.0000     2.3590     0.7000 N             1 RES     
      21 C            0.0000     3.3590     3.3590 C             1 RES     
      22 H            1.0000     3.3590     2.6590 H             1 RES     
      23 O           -1.0000     3.3590     2.6590 O             1 RES     
      24 F            0.0000     4.3590     4.0590 F             1 RES     
      25 N            0.0000     2.3590     4.0590 N             1 RES     
      26 C            0.0000     3.3590     6.7180 C             1 RES     
      27 H            1.0000     3.3590     6.0180 H             1 RES     
      28 O           -1.0000     3.3590     6.0180 O             1 RES     
      29 F            0.0000     4.3590     7.4180 F             1 RES     
      30 N            0.0000     2.3590     7.4180 N             1 RES     
      31 C            0.0000     6.7180     0.0000 C             1 RES     
      32 H            1.0000     6.7180    -0.7000 H             1 RES     
      33 O           -1.0000     6.7180    -0.7000 O             1 RES     
      34 F            0.0000     7.7180     0.7000 F             1 RES     
      35 N            0.0000     5.7180     0.7000 N             1 RES     
      36 C            0.0000     6.7180     3.3590 C             1 RES     
      37 H            1.0000     6.7180     2.6590 H             1 RES     
      38 O           -1.0000     6.7180     2.6590 O             1 RES     
      39 F            0.0000     7.7180     4.0590 F             1 RES     
      40 N            0.0000     5.7180     4.0590 N             1 RES     
      41 C            0.0000     6.7180     6.7180 C             1 RES     
      42 H            1.0000     6.7180     6.0180 H             1 RES     
      43 O           -1.0000     6.7180     6.0180 O             1 RES     
      44 F            0.0000     7.7180     7.4180 F             1 RES     
      45 N            0.0000     5.7180     7.4180 N             1 RES     
      46 C            3.3590     0.0000     0.0000 C             1 RES     
      47 H            4.3590     0.0000    -0.7000 H             1 RES     
      48 O            2.3590     0.0000    -0.7000 O             1 RES     
      49 F            3.3590     1.0000     0.7000 F             1 RES     
      50 N            3.3590    -1.0000     0.7000 N             1 RES     
      51 C            3.3590     0.0000     3.3590 C             1 RES     
      52 H            4.3590     0.0000     2.6590 H             1 RES     
      53 O            2.3590     0.0000     2.6590 O             1 RES     
      54 F            3.3590     1.0000     4.0590 F             1 RES     
      55 N            3.3590    -1.0000     4.0590 N             1 RES     
      56 C            3.3590     0.0000     6.7180 C             1 RES     
      57 H            4.3590     0.0000     6.0180 H             1 RES     
      58 O            2.3590     0.0000     6.0180 O             1 RES     
      59 F            3.3590     1.0000     7.4180 F             1 RES     
      60 N            3.3590    -1.0000     7.4180 N             1 RES     
      61 C            3.3590     3.3590     0.0000 C             1 RES     
      62 H            4.3590     3.3590    -0.7000 H             1 RES     
      63 O            2.3590     3.3590    -0.7000 O             1 RES     
      64 F            3.3590     4.3590     0.7000 F             1 RES     
      65 N            3.3590     2.3590     0.7000 N             1 RES     
      66 C            3.3590     3.3590     3.3590 C             1 RES     
      67 H            4.3590     3.3590     2.6590 H             1 RES     
      68 O            2.3590     3.3590     2.6590 O             1 RES     
      69 F            3.3590     4.3590     4.0590 F             1 RES     
      70 N            3.3590     2.3590     4.0590 N             1 RES     
      71 C            3.3590     3.3590     6.7180 C             1 RES     
      72 H            4.3590     3.3590     6.0180 H             1 RES     
      73 O            2.3590     3.3590     6.0180 O             1 RES     
      74 F            3.3590     4.3590     7.4180 F             1 RES     
      75 N            3.3590     2.3590     7.4180 N             1 RES     
      76 C            3.3590     6.7180     0.0000 C             1 RES     
      77 H            4.3590     6.7180    -0.7000 H             1 RES     
      78 O            2.3590     6.7180    -0.7000 O             1 RES     
      79 F            3.3590     7.7180     0.7000 F             1 RES     
      80 N            3.3590     5.7180     0.7000 N             1 RES     
      81 C            3.3590     6.7180     3.3590 C             1 RES     
      82 H            4.3590     6.7180     2.6590 H             1 RES     
      83 O            2.3590     6.7180     2.6590 O             1 RES     
      84 F            3.3590     7.7180     4.0590 F             1 RES     
      85 N            3.3590     5.7180     4.0590 N             1 RES     
      86 C            3.3590     6.7180     6.7180 C             1 RES     
      87 H            4.3590     6.7180     6.0180 H             1 RES     
      88 O            2.3590     6.7180     6.0180 O             1 RES     
      89 F            3.3590     7.7180     7.4180 F             1 RES     
      90 N            3.3590     5.7180     7.4180 N             1 RES     
      91 C            6.7180     0.0000     0.0000 C             1 RES     
      92 H            7.7180     0.0000    -0.7000 H             1 RES     
      93 O            5.7180     0.0000    -0.7000 O             1 RES     
      94 F            6.7180     1.0000     0.7000 F             1 RES     
      95 N            6.7180    -1.0000     0.7000 N             1 RES     
      96 C            6.7180     0.0000     3.3590 C             1 RES     
      97 H            7.7180     0.0000     2.6590 H             1 RES     
      98 O            5.7180     0.0000     2.6590 O             1 RES     
      99 F            6.7180     1.0000     4.0590 F             1 RES     
     100 N            6.7180    -1.0000     4.0590 N             1 RES     
     101 C            6.7180     0.0000     6.7180 C             1 RES     
     102 H            7.7180     0.0000     6.0180 H             1 RES     
     103 O            5.7180     0.0000     6.0180 O             1 RES     
     104 F            6.7180     1.0000     7.4180 F             1 RES     
     105 N            6.7180    -1.0000     7.4180 N             1 RES     
     106 C            6.7180     3.3590     0.0000 C             1 RES     
     107 H            7.7180     3.3590    -0.7000 H             1 RES     
     108 O            5.7180     3.3590    -0.7000 O             1 RES     
     109 F            6.7180     4.3590     0.7000 F             1 RES     
     110 N            6.7180     2.3590     0.7000 N             1 RES     
     111 C            6.7180     3.3590     3.3590 C             1 RES     
     112 H            7.7180     3.3590     2.6590 H             1 RES     
     113 O            5.7180     3.3590     2.6590 O             1 RES     
     114 F            6.7180     4.3590     4.0590 F             1 RES     
     115 N            6.7180     2.3590     4.0590 N             1 RES     
     116 C            6.7180     3.3590     6.7180 C             1 RES     
     117 H            7.7180     3.3590     6.0180 H             1 RES     
     118 O            5.7180     3.3590     6.0180 O             1 RES     
     119 F            6.7180     4.3590     7.4180 F             1 RES     
     120 N            6.7180     2.3590     7.4180 N             1 RES     
     121 C            6.7180     6.7180     0.0000 C             1 RES     
     122 H            7.7180     6.7180    -0.7000 H             1 RES     
     123 O            5.7180     6.7180    -0.7000 O             1 RES     
     124 F            6.7180     7.7180     0.7000 F             1 RES     
     125 N            6.7180     5.7180     0.7000 N             1 RES     
     126 C            6.7180     6.7180     3.3590 C             1 RES     
     127 H            7.7180     6.7180     2.6590 H             1 RES     
     128 O            5.7180     6.7180     2.6590 O             1 RES     
     129 F            6.7180     7.7180     4.0590 F             1 RES     
     130 N            6.7180     5.7180     4.0590 N             1 RES     
     131 C            6.7180     6.7180     6.7180 C             1 RES     
     132 H            7.7180     6.7180     6.0180 H             1 RES     
     133 O            5.7180     6.7180     6.0180 O             1 RES     
     134 F            6.7180     7.7180     7.4180 F             1 RES     
     135 N            6.7180     5.7180     7.4180 N             1 RES     
@<TRIPOS>BOND
       1       72       71 1
       2      116      117 1
       3       88       86 1
       4       36       40 1
       5       89       86 1
       6       96       97 1
       7      131      135 1
       8      116      120 1
       9       45       41 1
      10        6        8 1
      11       16       18 1
      12      121      123 1
      13       95       91 1
      14       81       82 1
      15        6        9 1
      16       57       56 1
      17       76       78 1
      18       11       14 1
      19       36       39 1
      20       61       65 1
      21       21       24 1
      22      112      111 1
      23       98       96 1
      24       76       80 1
      25        1        4 1
      26      110      106 1
      27      121      124 1
      28       21       23 1
      29       46       48 1
      30      113      111 1
      31       76       79 1
      32       52       51 1
      33       42       41 1
      34       51       55 1
      35      100       96 1
      36       43       41 1
      37       21       22 1
      38       56       58 1
      39        6       10 1
      40      122      121 1
      41      115      111 1
      42      126      128 1
      43       31       35 1
      44      121      125 1
      45       26       27 1
      46       81       83 1
      47       87       86 1
      48       66       67 1
      49       90       86 1
      50      116      119 1
      51       56       59 1
      52       71       73 1
      53      107      106 1
      54       32       31 1
      55      126      129 1
      56       66       69 1
      57       71       75 1
      58       26       28 1
      59      131      133 1
      60       99       96 1
      61       46       49 1
      62      104      101 1
      63       92       91 1
      64       56       60 1
      65       31       34 1
      66       61       63 1
      67       93       91 1
      68       37       36 1
      69       66       68 1
      70       31       33 1
      71      102      101 1
      72       26       29 1
      73      114      111 1
      74       46       50 1
      75       47       46 1
      76        1        2 1
      77       44       41 1
      78       81       84 1
      79      127      126 1
      80       76       77 1
      81       66       70 1
      82      131      132 1
      83       71       74 1
      84       51       54 1
      85      103      101 1
      86        6        7 1
      87       15       11 1
      88       26       30 1
      89       17       16 1
      90       21       25 1
      91       51       53 1
      92       62       61 1
      93       11       13 1
      94       81       85 1
      95        1        3 1
      96      131      134 1
      97       11       12 1
      98      108      106 1
      99      126      130 1
     100       20       16 1
     101       36       38 1
     102      105      101 1
     103        1        5 1
     104       19       16 1
     105       61       64 1
     106       94       91 1
     107      116      118 1
     108      109      106 1
@<TRIPOS>SUBSTRUCTURE
       1 RES             1 RESIDUE    0 **** ROOT      0
