@<TRIPOS>MOLECULE
RES
142 141 1 0 1
SMALL
NO_CHARGES
@<TRIPOS>CRYSIN
   14.0953    19.7287    36.6395    90.0000    90.0000    90.0000  1  1
@<TRIPOS>ATOM
       1 N            0.0000    -0.2763    30.2371 N             1 RES     
       2 C            0.9758    -1.3734    29.9303 C             1 RES     
       3 H            0.4515    -2.2104    29.2130 H             1 RES     
       4 H            1.3268    -1.9017    30.9733 H             1 RES     
       5 H            1.9432    -0.9010    29.3551 H             1 RES     
       6 C           -1.2288    -0.6689    30.8029 C             1 RES     
       7 H           -2.1249    -0.2087    30.1135 H             1 RES     
       8 H           -1.2934    -0.1841    31.9213 H             1 RES     
       9 H           -1.3528    -1.8816    30.8654 H             1 RES     
      10 C            0.6327     0.6519    31.0597 C             1 RES     
      11 H            0.2301     0.3482    32.1713 H             1 RES     
      12 H            0.3917     1.8306    30.8536 H             1 RES     
      13 H            1.8360     0.4550    31.0009 H             1 RES     
      14 C           -0.2191     0.4506    29.0700 C             1 RES     
      15 H            0.6986     0.7778    28.5812 H             1 RES     
      16 H           -0.8835     1.3040    29.2053 H             1 RES     
      17 C           -0.9162    -0.6088    28.1963 C             1 RES     
      18 H           -1.8338    -0.9360    28.6852 H             1 RES     
      19 H           -0.2517    -1.4622    28.0611 H             1 RES     
      20 P           -0.0000    -0.2763    25.8977 P             1 RES     
      21 OA          -0.3152     0.3434    24.4566 OA            1 RES     
      22 OA          -1.2433    -0.0219    26.8720 OA            1 RES     
      23 OM           0.2036    -1.8497    25.6900 OM            1 RES     
      24 OM           1.2861     0.4915    26.4601 OM            1 RES     
      25 C            0.8572     0.0892    23.5814 C             1 RES     
      26 H            1.0241    -0.9849    23.5008 H             1 RES     
      27 H            1.7400     0.5634    24.0101 H             1 RES     
      28 C           -0.8042     1.3267    22.1549 C             1 RES     
      29 H           -1.5610     0.5771    22.3861 H             1 RES     
      30 H           -0.8451     2.1254    22.8954 H             1 RES     
      31 C            0.5900     0.6732    22.1817 C             1 RES     
      32 H            1.3468     1.4227    21.9504 H             1 RES     
      33 OE          -1.0593     1.8841    20.8188 OE            1 RES     
      34 C           -2.4195     2.3870    21.2019 C             1 RES     
      35 O           -2.9233     2.2535    22.3160 O             1 RES     
      36 C           -2.7123     2.9447    19.9181 C             1 RES     
      37 H           -2.8872     4.0159    20.0189 H             1 RES     
      38 H           -3.6031     2.4675    19.5096 H             1 RES     
      39 C           -1.5222     2.7061    18.9704 C             1 RES     
      40 H           -1.3474     1.6350    18.8696 H             1 RES     
      41 H           -0.6314     3.1833    19.3789 H             1 RES     
      42 C           -1.8376     3.3067    17.5879 C             1 RES     
      43 H           -2.0124     4.3779    17.6886 H             1 RES     
      44 H           -2.7283     2.8295    17.1793 H             1 RES     
      45 C           -0.6474     3.0681    16.6401 C             1 RES     
      46 H           -0.4726     1.9970    16.5394 H             1 RES     
      47 H            0.2434     3.5453    17.0487 H             1 RES     
      48 C           -0.9628     3.6687    15.2576 C             1 RES     
      49 H           -1.1376     4.7399    15.3584 H             1 RES     
      50 H           -1.8535     3.1915    14.8490 H             1 RES     
      51 C            0.2274     3.4301    14.3098 C             1 RES     
      52 H            0.4022     2.3590    14.2091 H             1 RES     
      53 H            1.1182     3.9073    14.7184 H             1 RES     
      54 C           -0.0880     4.0307    12.9273 C             1 RES     
      55 H           -0.2628     5.1019    13.0281 H             1 RES     
      56 H           -0.9787     3.5535    12.5188 H             1 RES     
      57 C            1.1022     3.7921    11.9796 C             1 RES     
      58 H            1.2770     2.7210    11.8788 H             1 RES     
      59 H            1.9930     4.2693    12.3881 H             1 RES     
      60 C            0.7868     4.3927    10.5970 C             1 RES     
      61 H            0.6120     5.4639    10.6978 H             1 RES     
      62 H           -0.1039     3.9155    10.1885 H             1 RES     
      63 C            1.9770     4.1541     9.6493 C             1 RES     
      64 H            2.1518     3.0830     9.5485 H             1 RES     
      65 H            2.8678     4.6313    10.0578 H             1 RES     
      66 C            1.6616     4.7547     8.2667 C             1 RES     
      67 H            1.4868     5.8259     8.3675 H             1 RES     
      68 H            0.7709     4.2775     7.8582 H             1 RES     
      69 C            2.8518     4.5161     7.3190 C             1 RES     
      70 H            3.0266     3.4450     7.2182 H             1 RES     
      71 H            3.7426     4.9933     7.7275 H             1 RES     
      72 C            2.5364     5.1167     5.9365 C             1 RES     
      73 H            2.3616     6.1879     6.0372 H             1 RES     
      74 H            1.6457     4.6395     5.5279 H             1 RES     
      75 C            3.7266     4.8782     4.9887 C             1 RES     
      76 H            3.9014     3.8070     4.8880 H             1 RES     
      77 H            4.6174     5.3553     5.3973 H             1 RES     
      78 C            3.4112     5.4787     3.6062 C             1 RES     
      79 H            3.2364     6.5499     3.7070 H             1 RES     
      80 H            2.5205     5.0015     3.1977 H             1 RES     
      81 C            4.6014     5.2402     2.6585 C             1 RES     
      82 H            4.7762     4.1690     2.5577 H             1 RES     
      83 H            5.4922     5.7174     3.0670 H             1 RES     
      84 C            4.3004     5.8134     1.3388 C             1 RES     
      85 H            3.8701     4.8828     1.0326 H             1 RES     
      86 H            4.8692     6.2263     0.5318 H             1 RES     
      87 H            3.5207     6.4949     1.6110 H             1 RES     
      88 OE           0.6431    -0.3638    21.2203 OE            1 RES     
      89 C            0.8058    -1.4295    22.2633 C             1 RES     
      90 O            0.8490    -1.2183    23.4743 O             1 RES     
      91 C            0.8647    -2.5104    21.3289 C             1 RES     
      92 H            0.0493    -3.2062    21.5267 H             1 RES     
      93 H            1.8181    -3.0283    21.4325 H             1 RES     
      94 C            0.7330    -1.9596    19.8968 C             1 RES     
      95 H            1.5484    -1.2639    19.6990 H             1 RES     
      96 H           -0.2205    -1.4417    19.7932 H             1 RES     
      97 C            0.7964    -3.1237    18.8905 C             1 RES     
      98 H           -0.0190    -3.8195    19.0883 H             1 RES     
      99 H            1.7499    -3.6416    18.9941 H             1 RES     
     100 C            0.6648    -2.5729    17.4584 C             1 RES     
     101 H            1.4802    -1.8772    17.2606 H             1 RES     
     102 H           -0.2887    -2.0550    17.3548 H             1 RES     
     103 C            0.7282    -3.7370    16.4521 C             1 RES     
     104 H           -0.0872    -4.4327    16.6500 H             1 RES     
     105 H            1.6817    -4.2549    16.5557 H             1 RES     
     106 C            0.5966    -3.1862    15.0200 C             1 RES     
     107 H            1.4120    -2.4904    14.8222 H             1 RES     
     108 H           -0.3569    -2.6683    14.9164 H             1 RES     
     109 C            0.6600    -4.3503    14.0138 C             1 RES     
     110 H           -0.1554    -5.0460    14.2116 H             1 RES     
     111 H            1.6135    -4.8682    14.1173 H             1 RES     
     112 C            0.5284    -3.7995    12.5816 C             1 RES     
     113 H            1.3437    -3.1037    12.3838 H             1 RES     
     114 H           -0.4251    -3.2816    12.4780 H             1 RES     
     115 C            0.5918    -4.9636    11.5754 C             1 RES     
     116 H           -0.2236    -5.6593    11.7732 H             1 RES     
     117 H            1.5453    -5.4815    11.6790 H             1 RES     
     118 C            0.4601    -4.4128    10.1433 C             1 RES     
     119 H            1.2755    -3.7170     9.9454 H             1 RES     
     120 H           -0.4933    -3.8949    10.0397 H             1 RES     
     121 C            0.5236    -5.5768     9.1370 C             1 RES     
     122 H           -0.2918    -6.2726     9.3348 H             1 RES     
     123 H            1.4770    -6.0948     9.2406 H             1 RES     
     124 C            0.3919    -5.0261     7.7049 C             1 RES     
     125 H            1.2073    -4.3303     7.5071 H             1 RES     
     126 H           -0.5616    -4.5082     7.6013 H             1 RES     
     127 C            0.4553    -6.1901     6.6986 C             1 RES     
     128 H           -0.3600    -6.8859     6.8964 H             1 RES     
     129 H            1.4088    -6.7081     6.8022 H             1 RES     
     130 C            0.3237    -5.6394     5.2665 C             1 RES     
     131 H            1.1391    -4.9436     5.0687 H             1 RES     
     132 H           -0.6298    -5.1215     5.1629 H             1 RES     
     133 C            0.3871    -6.8034     4.2602 C             1 RES     
     134 H           -0.4283    -7.4992     4.4580 H             1 RES     
     135 H            1.3406    -7.3214     4.3638 H             1 RES     
     136 C            0.2555    -6.2527     2.8281 C             1 RES     
     137 H            1.0709    -5.5569     2.6303 H             1 RES     
     138 H           -0.6980    -5.7347     2.7245 H             1 RES     
     139 C            0.3160    -7.3638     1.8676 C             1 RES     
     140 H            1.3792    -7.2569     1.8109 H             1 RES     
     141 H           -0.0758    -7.5582     0.8909 H             1 RES     
     142 H            0.0733    -8.1788     2.5180 H             1 RES     
@<TRIPOS>BOND
       1       58       57 1
       2        1       14 1
       3      100      102 1
       4      112      114 1
       5       32       31 1
       6       33       34 1
       7      118      120 1
       8       20       24 1
       9      106      108 1
      10       13       10 1
      11       61       60 1
      12       75       77 1
      13       52       51 1
      14      118      121 1
      15       48       45 1
      16       89       88 1
      17      112      109 1
      18       17       22 1
      19      112      115 1
      20       14       17 1
      21       86       84 1
      22       97      100 1
      23      111      109 1
      24      136      133 1
      25      121      124 1
      26        1        2 1
      27       25       31 1
      28       79       78 1
      29      106      107 1
      30      118      115 1
      31       55       54 1
      32       91       89 1
      33       69       66 1
      34       28       33 1
      35       16       14 1
      36      127      129 1
      37       30       28 1
      38       75       78 1
      39       81       84 1
      40       85       84 1
      41       36       34 1
      42       81       78 1
      43       94       97 1
      44       54       56 1
      45       92       91 1
      46      122      121 1
      47       94       96 1
      48      109      106 1
      49       40       39 1
      50       42       43 1
      51      110      109 1
      52        7        6 1
      53      136      137 1
      54        2        4 1
      55       19       17 1
      56       28       29 1
      57       20       22 1
      58       53       51 1
      59      104      103 1
      60       48       49 1
      61       62       60 1
      62      132      130 1
      63      139      141 1
      64      127      128 1
      65       14       15 1
      66       84       87 1
      67       54       51 1
      68       76       75 1
      69        2        3 1
      70       80       78 1
      71       59       57 1
      72       60       63 1
      73        5        2 1
      74        9        6 1
      75       57       60 1
      76       69       71 1
      77       66       68 1
      78       26       25 1
      79       67       66 1
      80       20       23 1
      81      130      131 1
      82       91       93 1
      83       45       42 1
      84       47       45 1
      85      133      134 1
      86      139      142 1
      87       94       95 1
      88       46       45 1
      89       72       74 1
      90       63       66 1
      91       82       81 1
      92       18       17 1
      93       48       51 1
      94       36       39 1
      95        1       10 1
      96       36       38 1
      97       72       69 1
      98       27       25 1
      99       31       28 1
     100       42       39 1
     101       42       44 1
     102       57       54 1
     103      105      103 1
     104      139      136 1
     105       73       72 1
     106      100      101 1
     107      133      130 1
     108       12       10 1
     109       37       36 1
     110      140      139 1
     111       63       65 1
     112      123      121 1
     113       94       91 1
     114       72       75 1
     115       70       69 1
     116       89       90 1
     117       97       98 1
     118      106      103 1
     119       35       34 1
     120      113      112 1
     121       48       50 1
     122      125      124 1
     123      124      127 1
     124       21       25 1
     125        1        6 1
     126       31       88 1
     127       11       10 1
     128      103      100 1
     129      118      119 1
     130      126      124 1
     131      135      133 1
     132        8        6 1
     133       81       83 1
     134       41       39 1
     135       63       64 1
     136       97       99 1
     137      136      138 1
     138       20       21 1
     139      117      115 1
     140      130      127 1
     141      116      115 1
@<TRIPOS>SUBSTRUCTURE
       1 RES             1 RESIDUE    0 **** ROOT      0
