@<TRIPOS>MOLECULE
RES
49 48 1 0 1
SMALL
NO_CHARGES
@<TRIPOS>CRYSIN
   25.9489     7.7808     7.6930    90.0000    90.0000    90.0000  1  1
@<TRIPOS>ATOM
       1 OE          -9.0317    -1.7322     9.3449 OE            1 RES     
       2 C           -9.7874    -0.6740     8.5970 C             1 RES     
       3 O          -11.0140    -0.5995     8.5444 O             1 RES     
       4 C           -8.6196     0.0000     8.1207 C             1 RES     
       5 H           -8.6196     1.0275     8.4845 H             1 RES     
       6 H           -8.6196     0.0000     7.0307 H             1 RES     
       7 C           -7.3619    -0.7258     8.6337 C             1 RES     
       8 H           -7.3619    -1.7533     8.2698 H             1 RES     
       9 H           -7.3619    -0.7258     9.7237 H             1 RES     
      10 C           -6.1043    -0.0000     8.1207 C             1 RES     
      11 H           -6.1043     1.0275     8.4845 H             1 RES     
      12 H           -6.1043    -0.0000     7.0307 H             1 RES     
      13 C           -4.8467    -0.7258     8.6337 C             1 RES     
      14 H           -4.8467    -1.7533     8.2698 H             1 RES     
      15 H           -4.8467    -0.7258     9.7237 H             1 RES     
      16 C           -3.5891    -0.0000     8.1207 C             1 RES     
      17 H           -3.5891     1.0275     8.4845 H             1 RES     
      18 H           -3.5891    -0.0000     7.0307 H             1 RES     
      19 C           -2.3314    -0.7258     8.6337 C             1 RES     
      20 H           -2.3314    -1.7533     8.2698 H             1 RES     
      21 H           -2.3314    -0.7258     9.7237 H             1 RES     
      22 C           -1.0738    -0.0000     8.1207 C             1 RES     
      23 H           -1.0738     1.0275     8.4845 H             1 RES     
      24 H           -1.0738    -0.0000     7.0307 H             1 RES     
      25 C            0.1838    -0.7258     8.6337 C             1 RES     
      26 H            0.1838    -1.7533     8.2698 H             1 RES     
      27 H            0.1838    -0.7258     9.7237 H             1 RES     
      28 C            1.4415    -0.0000     8.1207 C             1 RES     
      29 H            1.4415     1.0275     8.4845 H             1 RES     
      30 H            1.4415    -0.0000     7.0307 H             1 RES     
      31 C            2.6991    -0.7258     8.6337 C             1 RES     
      32 H            2.6991    -1.7533     8.2698 H             1 RES     
      33 H            2.6991    -0.7258     9.7237 H             1 RES     
      34 C            3.9567    -0.0000     8.1207 C             1 RES     
      35 H            3.9567     1.0275     8.4845 H             1 RES     
      36 H            3.9567    -0.0000     7.0307 H             1 RES     
      37 C            5.2143    -0.7258     8.6337 C             1 RES     
      38 H            5.2143    -1.7533     8.2698 H             1 RES     
      39 H            5.2143    -0.7258     9.7237 H             1 RES     
      40 C            6.4720    -0.0000     8.1207 C             1 RES     
      41 H            6.4720     1.0275     8.4845 H             1 RES     
      42 H            6.4720    -0.0000     7.0307 H             1 RES     
      43 C            7.7296    -0.7258     8.6337 C             1 RES     
      44 H            7.7296    -1.7533     8.2698 H             1 RES     
      45 H            7.7296    -0.7258     9.7237 H             1 RES     
      46 C            8.9301    -0.0330     8.1440 C             1 RES     
      47 H            8.9301    -0.6505     7.2702 H             1 RES     
      48 H            9.9349     0.1000     8.4872 H             1 RES     
      49 H            8.5048     0.9206     7.9072 H             1 RES     
@<TRIPOS>BOND
       1       30       28 1
       2       40       43 1
       3       43       45 1
       4        7       10 1
       5       40       42 1
       6       13       14 1
       7        3        2 1
       8       18       16 1
       9       37       39 1
      10        8        7 1
      11       40       41 1
      12        5        4 1
      13       15       13 1
      14       25       27 1
      15       49       46 1
      16       34       31 1
      17       21       19 1
      18       43       46 1
      19       16       13 1
      20       26       25 1
      21       35       34 1
      22       48       46 1
      23       10       12 1
      24       11       10 1
      25       23       22 1
      26       19       20 1
      27       17       16 1
      28       10       13 1
      29       22       25 1
      30       32       31 1
      31       19       16 1
      32       37       34 1
      33       22       24 1
      34        7        4 1
      35       28       31 1
      36       46       47 1
      37        2        4 1
      38       33       31 1
      39        9        7 1
      40       36       34 1
      41       29       28 1
      42       19       22 1
      43        6        4 1
      44       28       25 1
      45       37       40 1
      46        1        2 1
      47       43       44 1
      48       38       37 1
@<TRIPOS>SUBSTRUCTURE
       1 RES             1 RESIDUE    0 **** ROOT      0
