@<TRIPOS>MOLECULE
RES
11 11 1 0 1
SMALL
NO_CHARGES
@<TRIPOS>CRYSIN
   13.0026     8.0800     6.2579    90.0000    90.0000    90.0000  1  1
@<TRIPOS>ATOM
       1 C*          -0.0000     0.8890    -1.2579 C*            1 RES     
       2 C            0.0000     0.0000     0.0000 C             1 RES     
       3 C           -1.3338    -0.7704     0.0000 C             1 RES     
       4 C           -2.6675    -0.0006     0.0000 C             1 RES     
       5 C           -4.0008    -0.7701     0.0000 C             1 RES     
       6 C           -5.3345    -0.0002     0.0000 C             1 RES     
       7 C           -5.3350     1.5392     0.0000 C             1 RES     
       8 C           -4.0013     2.3096     0.0000 C             1 RES     
       9 C           -2.6675     1.5397     0.0000 C             1 RES     
      10 N            1.3338    -0.7699     0.0000 N             1 RES     
      11 C            2.6675     0.0006     0.0000 C             1 RES     
@<TRIPOS>BOND
       1        8        7 1
       2        6        5 1
       3        9        4 1
       4        6        7 1
       5        3        2 1
       6        4        3 1
       7        5        4 1
       8       10       11 1
       9        2        1 1
      10        9        8 1
      11        2       10 1
@<TRIPOS>SUBSTRUCTURE
       1 RES             1 RESIDUE    0 **** ROOT      0
