@<TRIPOS>MOLECULE
RES
324 297 1 0 1
SMALL
NO_CHARGES
@<TRIPOS>CRYSIN
   17.4983    19.4909    17.8650    90.0000    90.0000    90.0000  1  1
@<TRIPOS>ATOM
       1 C            0.0000     0.0000     0.0000 C             1 RES     
       2 Br           0.8901     0.0000     0.6291 Br            1 RES     
       3 H           -0.8901     0.0000     0.6291 H             1 RES     
       4 C            0.0000    -1.2576    -0.8888 C             1 RES     
       5 Br          -0.8901    -1.2576    -1.5179 Br            1 RES     
       6 H            0.8901    -1.2576    -1.5179 H             1 RES     
       7 C           -0.0000    -2.5153    -0.0000 C             1 RES     
       8 Br           0.8901    -2.5153     0.6291 Br            1 RES     
       9 H           -0.8901    -2.5153     0.6291 H             1 RES     
      10 C           -0.0000    -3.7729    -0.8888 C             1 RES     
      11 Br          -0.8901    -3.7729    -1.5179 Br            1 RES     
      12 H            0.8901    -3.7729    -1.5179 H             1 RES     
      13 C            0.0000     0.0000     5.3590 C             1 RES     
      14 Br           0.8901     0.0000     5.9881 Br            1 RES     
      15 H           -0.8901     0.0000     5.9881 H             1 RES     
      16 C            0.0000    -1.2576     4.4702 C             1 RES     
      17 Br          -0.8901    -1.2576     3.8411 Br            1 RES     
      18 H            0.8901    -1.2576     3.8411 H             1 RES     
      19 C           -0.0000    -2.5153     5.3590 C             1 RES     
      20 Br           0.8901    -2.5153     5.9881 Br            1 RES     
      21 H           -0.8901    -2.5153     5.9881 H             1 RES     
      22 C           -0.0000    -3.7729     4.4702 C             1 RES     
      23 Br          -0.8901    -3.7729     3.8411 Br            1 RES     
      24 H            0.8901    -3.7729     3.8411 H             1 RES     
      25 C            0.0000     0.0000    10.7180 C             1 RES     
      26 Br           0.8901     0.0000    11.3471 Br            1 RES     
      27 H           -0.8901     0.0000    11.3471 H             1 RES     
      28 C            0.0000    -1.2576     9.8292 C             1 RES     
      29 Br          -0.8901    -1.2576     9.2001 Br            1 RES     
      30 H            0.8901    -1.2576     9.2001 H             1 RES     
      31 C           -0.0000    -2.5153    10.7180 C             1 RES     
      32 Br           0.8901    -2.5153    11.3471 Br            1 RES     
      33 H           -0.8901    -2.5153    11.3471 H             1 RES     
      34 C           -0.0000    -3.7729     9.8292 C             1 RES     
      35 Br          -0.8901    -3.7729     9.2001 Br            1 RES     
      36 H            0.8901    -3.7729     9.2001 H             1 RES     
      37 C            0.0000     5.3590     0.0000 C             1 RES     
      38 Br           0.8901     5.3590     0.6291 Br            1 RES     
      39 H           -0.8901     5.3590     0.6291 H             1 RES     
      40 C            0.0000     4.1014    -0.8888 C             1 RES     
      41 Br          -0.8901     4.1014    -1.5179 Br            1 RES     
      42 H            0.8901     4.1014    -1.5179 H             1 RES     
      43 C           -0.0000     2.8437    -0.0000 C             1 RES     
      44 Br           0.8901     2.8437     0.6291 Br            1 RES     
      45 H           -0.8901     2.8437     0.6291 H             1 RES     
      46 C           -0.0000     1.5861    -0.8888 C             1 RES     
      47 Br          -0.8901     1.5861    -1.5179 Br            1 RES     
      48 H            0.8901     1.5861    -1.5179 H             1 RES     
      49 C            0.0000     5.3590     5.3590 C             1 RES     
      50 Br           0.8901     5.3590     5.9881 Br            1 RES     
      51 H           -0.8901     5.3590     5.9881 H             1 RES     
      52 C            0.0000     4.1014     4.4702 C             1 RES     
      53 Br          -0.8901     4.1014     3.8411 Br            1 RES     
      54 H            0.8901     4.1014     3.8411 H             1 RES     
      55 C           -0.0000     2.8437     5.3590 C             1 RES     
      56 Br           0.8901     2.8437     5.9881 Br            1 RES     
      57 H           -0.8901     2.8437     5.9881 H             1 RES     
      58 C           -0.0000     1.5861     4.4702 C             1 RES     
      59 Br          -0.8901     1.5861     3.8411 Br            1 RES     
      60 H            0.8901     1.5861     3.8411 H             1 RES     
      61 C            0.0000     5.3590    10.7180 C             1 RES     
      62 Br           0.8901     5.3590    11.3471 Br            1 RES     
      63 H           -0.8901     5.3590    11.3471 H             1 RES     
      64 C            0.0000     4.1014     9.8292 C             1 RES     
      65 Br          -0.8901     4.1014     9.2001 Br            1 RES     
      66 H            0.8901     4.1014     9.2001 H             1 RES     
      67 C           -0.0000     2.8437    10.7180 C             1 RES     
      68 Br           0.8901     2.8437    11.3471 Br            1 RES     
      69 H           -0.8901     2.8437    11.3471 H             1 RES     
      70 C           -0.0000     1.5861     9.8292 C             1 RES     
      71 Br          -0.8901     1.5861     9.2001 Br            1 RES     
      72 H            0.8901     1.5861     9.2001 H             1 RES     
      73 C            0.0000    10.7180     0.0000 C             1 RES     
      74 Br           0.8901    10.7180     0.6291 Br            1 RES     
      75 H           -0.8901    10.7180     0.6291 H             1 RES     
      76 C            0.0000     9.4604    -0.8888 C             1 RES     
      77 Br          -0.8901     9.4604    -1.5179 Br            1 RES     
      78 H            0.8901     9.4604    -1.5179 H             1 RES     
      79 C           -0.0000     8.2027    -0.0000 C             1 RES     
      80 Br           0.8901     8.2027     0.6291 Br            1 RES     
      81 H           -0.8901     8.2027     0.6291 H             1 RES     
      82 C           -0.0000     6.9451    -0.8888 C             1 RES     
      83 Br          -0.8901     6.9451    -1.5179 Br            1 RES     
      84 H            0.8901     6.9451    -1.5179 H             1 RES     
      85 C            0.0000    10.7180     5.3590 C             1 RES     
      86 Br           0.8901    10.7180     5.9881 Br            1 RES     
      87 H           -0.8901    10.7180     5.9881 H             1 RES     
      88 C            0.0000     9.4604     4.4702 C             1 RES     
      89 Br          -0.8901     9.4604     3.8411 Br            1 RES     
      90 H            0.8901     9.4604     3.8411 H             1 RES     
      91 C           -0.0000     8.2027     5.3590 C             1 RES     
      92 Br           0.8901     8.2027     5.9881 Br            1 RES     
      93 H           -0.8901     8.2027     5.9881 H             1 RES     
      94 C           -0.0000     6.9451     4.4702 C             1 RES     
      95 Br          -0.8901     6.9451     3.8411 Br            1 RES     
      96 H            0.8901     6.9451     3.8411 H             1 RES     
      97 C            0.0000    10.7180    10.7180 C             1 RES     
      98 Br           0.8901    10.7180    11.3471 Br            1 RES     
      99 H           -0.8901    10.7180    11.3471 H             1 RES     
     100 C            0.0000     9.4604     9.8292 C             1 RES     
     101 Br          -0.8901     9.4604     9.2001 Br            1 RES     
     102 H            0.8901     9.4604     9.2001 H             1 RES     
     103 C           -0.0000     8.2027    10.7180 C             1 RES     
     104 Br           0.8901     8.2027    11.3471 Br            1 RES     
     105 H           -0.8901     8.2027    11.3471 H             1 RES     
     106 C           -0.0000     6.9451     9.8292 C             1 RES     
     107 Br          -0.8901     6.9451     9.2001 Br            1 RES     
     108 H            0.8901     6.9451     9.2001 H             1 RES     
     109 C            5.3590     0.0000     0.0000 C             1 RES     
     110 Br           6.2491     0.0000     0.6291 Br            1 RES     
     111 H            4.4689     0.0000     0.6291 H             1 RES     
     112 C            5.3590    -1.2576    -0.8888 C             1 RES     
     113 Br           4.4689    -1.2576    -1.5179 Br            1 RES     
     114 H            6.2491    -1.2576    -1.5179 H             1 RES     
     115 C            5.3590    -2.5153    -0.0000 C             1 RES     
     116 Br           6.2491    -2.5153     0.6291 Br            1 RES     
     117 H            4.4689    -2.5153     0.6291 H             1 RES     
     118 C            5.3590    -3.7729    -0.8888 C             1 RES     
     119 Br           4.4689    -3.7729    -1.5179 Br            1 RES     
     120 H            6.2491    -3.7729    -1.5179 H             1 RES     
     121 C            5.3590     0.0000     5.3590 C             1 RES     
     122 Br           6.2491     0.0000     5.9881 Br            1 RES     
     123 H            4.4689     0.0000     5.9881 H             1 RES     
     124 C            5.3590    -1.2576     4.4702 C             1 RES     
     125 Br           4.4689    -1.2576     3.8411 Br            1 RES     
     126 H            6.2491    -1.2576     3.8411 H             1 RES     
     127 C            5.3590    -2.5153     5.3590 C             1 RES     
     128 Br           6.2491    -2.5153     5.9881 Br            1 RES     
     129 H            4.4689    -2.5153     5.9881 H             1 RES     
     130 C            5.3590    -3.7729     4.4702 C             1 RES     
     131 Br           4.4689    -3.7729     3.8411 Br            1 RES     
     132 H            6.2491    -3.7729     3.8411 H             1 RES     
     133 C            5.3590     0.0000    10.7180 C             1 RES     
     134 Br           6.2491     0.0000    11.3471 Br            1 RES     
     135 H            4.4689     0.0000    11.3471 H             1 RES     
     136 C            5.3590    -1.2576     9.8292 C             1 RES     
     137 Br           4.4689    -1.2576     9.2001 Br            1 RES     
     138 H            6.2491    -1.2576     9.2001 H             1 RES     
     139 C            5.3590    -2.5153    10.7180 C             1 RES     
     140 Br           6.2491    -2.5153    11.3471 Br            1 RES     
     141 H            4.4689    -2.5153    11.3471 H             1 RES     
     142 C            5.3590    -3.7729     9.8292 C             1 RES     
     143 Br           4.4689    -3.7729     9.2001 Br            1 RES     
     144 H            6.2491    -3.7729     9.2001 H             1 RES     
     145 C            5.3590     5.3590     0.0000 C             1 RES     
     146 Br           6.2491     5.3590     0.6291 Br            1 RES     
     147 H            4.4689     5.3590     0.6291 H             1 RES     
     148 C            5.3590     4.1014    -0.8888 C             1 RES     
     149 Br           4.4689     4.1014    -1.5179 Br            1 RES     
     150 H            6.2491     4.1014    -1.5179 H             1 RES     
     151 C            5.3590     2.8437    -0.0000 C             1 RES     
     152 Br           6.2491     2.8437     0.6291 Br            1 RES     
     153 H            4.4689     2.8437     0.6291 H             1 RES     
     154 C            5.3590     1.5861    -0.8888 C             1 RES     
     155 Br           4.4689     1.5861    -1.5179 Br            1 RES     
     156 H            6.2491     1.5861    -1.5179 H             1 RES     
     157 C            5.3590     5.3590     5.3590 C             1 RES     
     158 Br           6.2491     5.3590     5.9881 Br            1 RES     
     159 H            4.4689     5.3590     5.9881 H             1 RES     
     160 C            5.3590     4.1014     4.4702 C             1 RES     
     161 Br           4.4689     4.1014     3.8411 Br            1 RES     
     162 H            6.2491     4.1014     3.8411 H             1 RES     
     163 C            5.3590     2.8437     5.3590 C             1 RES     
     164 Br           6.2491     2.8437     5.9881 Br            1 RES     
     165 H            4.4689     2.8437     5.9881 H             1 RES     
     166 C            5.3590     1.5861     4.4702 C             1 RES     
     167 Br           4.4689     1.5861     3.8411 Br            1 RES     
     168 H            6.2491     1.5861     3.8411 H             1 RES     
     169 C            5.3590     5.3590    10.7180 C             1 RES     
     170 Br           6.2491     5.3590    11.3471 Br            1 RES     
     171 H            4.4689     5.3590    11.3471 H             1 RES     
     172 C            5.3590     4.1014     9.8292 C             1 RES     
     173 Br           4.4689     4.1014     9.2001 Br            1 RES     
     174 H            6.2491     4.1014     9.2001 H             1 RES     
     175 C            5.3590     2.8437    10.7180 C             1 RES     
     176 Br           6.2491     2.8437    11.3471 Br            1 RES     
     177 H            4.4689     2.8437    11.3471 H             1 RES     
     178 C            5.3590     1.5861     9.8292 C             1 RES     
     179 Br           4.4689     1.5861     9.2001 Br            1 RES     
     180 H            6.2491     1.5861     9.2001 H             1 RES     
     181 C            5.3590    10.7180     0.0000 C             1 RES     
     182 Br           6.2491    10.7180     0.6291 Br            1 RES     
     183 H            4.4689    10.7180     0.6291 H             1 RES     
     184 C            5.3590     9.4604    -0.8888 C             1 RES     
     185 Br           4.4689     9.4604    -1.5179 Br            1 RES     
     186 H            6.2491     9.4604    -1.5179 H             1 RES     
     187 C            5.3590     8.2027    -0.0000 C             1 RES     
     188 Br           6.2491     8.2027     0.6291 Br            1 RES     
     189 H            4.4689     8.2027     0.6291 H             1 RES     
     190 C            5.3590     6.9451    -0.8888 C             1 RES     
     191 Br           4.4689     6.9451    -1.5179 Br            1 RES     
     192 H            6.2491     6.9451    -1.5179 H             1 RES     
     193 C            5.3590    10.7180     5.3590 C             1 RES     
     194 Br           6.2491    10.7180     5.9881 Br            1 RES     
     195 H            4.4689    10.7180     5.9881 H             1 RES     
     196 C            5.3590     9.4604     4.4702 C             1 RES     
     197 Br           4.4689     9.4604     3.8411 Br            1 RES     
     198 H            6.2491     9.4604     3.8411 H             1 RES     
     199 C            5.3590     8.2027     5.3590 C             1 RES     
     200 Br           6.2491     8.2027     5.9881 Br            1 RES     
     201 H            4.4689     8.2027     5.9881 H             1 RES     
     202 C            5.3590     6.9451     4.4702 C             1 RES     
     203 Br           4.4689     6.9451     3.8411 Br            1 RES     
     204 H            6.2491     6.9451     3.8411 H             1 RES     
     205 C            5.3590    10.7180    10.7180 C             1 RES     
     206 Br           6.2491    10.7180    11.3471 Br            1 RES     
     207 H            4.4689    10.7180    11.3471 H             1 RES     
     208 C            5.3590     9.4604     9.8292 C             1 RES     
     209 Br           4.4689     9.4604     9.2001 Br            1 RES     
     210 H            6.2491     9.4604     9.2001 H             1 RES     
     211 C            5.3590     8.2027    10.7180 C             1 RES     
     212 Br           6.2491     8.2027    11.3471 Br            1 RES     
     213 H            4.4689     8.2027    11.3471 H             1 RES     
     214 C            5.3590     6.9451     9.8292 C             1 RES     
     215 Br           4.4689     6.9451     9.2001 Br            1 RES     
     216 H            6.2491     6.9451     9.2001 H             1 RES     
     217 C           10.7180     0.0000     0.0000 C             1 RES     
     218 Br          11.6081     0.0000     0.6291 Br            1 RES     
     219 H            9.8279     0.0000     0.6291 H             1 RES     
     220 C           10.7180    -1.2576    -0.8888 C             1 RES     
     221 Br           9.8279    -1.2576    -1.5179 Br            1 RES     
     222 H           11.6081    -1.2576    -1.5179 H             1 RES     
     223 C           10.7180    -2.5153    -0.0000 C             1 RES     
     224 Br          11.6081    -2.5153     0.6291 Br            1 RES     
     225 H            9.8279    -2.5153     0.6291 H             1 RES     
     226 C           10.7180    -3.7729    -0.8888 C             1 RES     
     227 Br           9.8279    -3.7729    -1.5179 Br            1 RES     
     228 H           11.6081    -3.7729    -1.5179 H             1 RES     
     229 C           10.7180     0.0000     5.3590 C             1 RES     
     230 Br          11.6081     0.0000     5.9881 Br            1 RES     
     231 H            9.8279     0.0000     5.9881 H             1 RES     
     232 C           10.7180    -1.2576     4.4702 C             1 RES     
     233 Br           9.8279    -1.2576     3.8411 Br            1 RES     
     234 H           11.6081    -1.2576     3.8411 H             1 RES     
     235 C           10.7180    -2.5153     5.3590 C             1 RES     
     236 Br          11.6081    -2.5153     5.9881 Br            1 RES     
     237 H            9.8279    -2.5153     5.9881 H             1 RES     
     238 C           10.7180    -3.7729     4.4702 C             1 RES     
     239 Br           9.8279    -3.7729     3.8411 Br            1 RES     
     240 H           11.6081    -3.7729     3.8411 H             1 RES     
     241 C           10.7180     0.0000    10.7180 C             1 RES     
     242 Br          11.6081     0.0000    11.3471 Br            1 RES     
     243 H            9.8279     0.0000    11.3471 H             1 RES     
     244 C           10.7180    -1.2576     9.8292 C             1 RES     
     245 Br           9.8279    -1.2576     9.2001 Br            1 RES     
     246 H           11.6081    -1.2576     9.2001 H             1 RES     
     247 C           10.7180    -2.5153    10.7180 C             1 RES     
     248 Br          11.6081    -2.5153    11.3471 Br            1 RES     
     249 H            9.8279    -2.5153    11.3471 H             1 RES     
     250 C           10.7180    -3.7729     9.8292 C             1 RES     
     251 Br           9.8279    -3.7729     9.2001 Br            1 RES     
     252 H           11.6081    -3.7729     9.2001 H             1 RES     
     253 C           10.7180     5.3590     0.0000 C             1 RES     
     254 Br          11.6081     5.3590     0.6291 Br            1 RES     
     255 H            9.8279     5.3590     0.6291 H             1 RES     
     256 C           10.7180     4.1014    -0.8888 C             1 RES     
     257 Br           9.8279     4.1014    -1.5179 Br            1 RES     
     258 H           11.6081     4.1014    -1.5179 H             1 RES     
     259 C           10.7180     2.8437    -0.0000 C             1 RES     
     260 Br          11.6081     2.8437     0.6291 Br            1 RES     
     261 H            9.8279     2.8437     0.6291 H             1 RES     
     262 C           10.7180     1.5861    -0.8888 C             1 RES     
     263 Br           9.8279     1.5861    -1.5179 Br            1 RES     
     264 H           11.6081     1.5861    -1.5179 H             1 RES     
     265 C           10.7180     5.3590     5.3590 C             1 RES     
     266 Br          11.6081     5.3590     5.9881 Br            1 RES     
     267 H            9.8279     5.3590     5.9881 H             1 RES     
     268 C           10.7180     4.1014     4.4702 C             1 RES     
     269 Br           9.8279     4.1014     3.8411 Br            1 RES     
     270 H           11.6081     4.1014     3.8411 H             1 RES     
     271 C           10.7180     2.8437     5.3590 C             1 RES     
     272 Br          11.6081     2.8437     5.9881 Br            1 RES     
     273 H            9.8279     2.8437     5.9881 H             1 RES     
     274 C           10.7180     1.5861     4.4702 C             1 RES     
     275 Br           9.8279     1.5861     3.8411 Br            1 RES     
     276 H           11.6081     1.5861     3.8411 H             1 RES     
     277 C           10.7180     5.3590    10.7180 C             1 RES     
     278 Br          11.6081     5.3590    11.3471 Br            1 RES     
     279 H            9.8279     5.3590    11.3471 H             1 RES     
     280 C           10.7180     4.1014     9.8292 C             1 RES     
     281 Br           9.8279     4.1014     9.2001 Br            1 RES     
     282 H           11.6081     4.1014     9.2001 H             1 RES     
     283 C           10.7180     2.8437    10.7180 C             1 RES     
     284 Br          11.6081     2.8437    11.3471 Br            1 RES     
     285 H            9.8279     2.8437    11.3471 H             1 RES     
     286 C           10.7180     1.5861     9.8292 C             1 RES     
     287 Br           9.8279     1.5861     9.2001 Br            1 RES     
     288 H           11.6081     1.5861     9.2001 H             1 RES     
     289 C           10.7180    10.7180     0.0000 C             1 RES     
     290 Br          11.6081    10.7180     0.6291 Br            1 RES     
     291 H            9.8279    10.7180     0.6291 H             1 RES     
     292 C           10.7180     9.4604    -0.8888 C             1 RES     
     293 Br           9.8279     9.4604    -1.5179 Br            1 RES     
     294 H           11.6081     9.4604    -1.5179 H             1 RES     
     295 C           10.7180     8.2027    -0.0000 C             1 RES     
     296 Br          11.6081     8.2027     0.6291 Br            1 RES     
     297 H            9.8279     8.2027     0.6291 H             1 RES     
     298 C           10.7180     6.9451    -0.8888 C             1 RES     
     299 Br           9.8279     6.9451    -1.5179 Br            1 RES     
     300 H           11.6081     6.9451    -1.5179 H             1 RES     
     301 C           10.7180    10.7180     5.3590 C             1 RES     
     302 Br          11.6081    10.7180     5.9881 Br            1 RES     
     303 H            9.8279    10.7180     5.9881 H             1 RES     
     304 C           10.7180     9.4604     4.4702 C             1 RES     
     305 Br           9.8279     9.4604     3.8411 Br            1 RES     
     306 H           11.6081     9.4604     3.8411 H             1 RES     
     307 C           10.7180     8.2027     5.3590 C             1 RES     
     308 Br          11.6081     8.2027     5.9881 Br            1 RES     
     309 H            9.8279     8.2027     5.9881 H             1 RES     
     310 C           10.7180     6.9451     4.4702 C             1 RES     
     311 Br           9.8279     6.9451     3.8411 Br            1 RES     
     312 H           11.6081     6.9451     3.8411 H             1 RES     
     313 C           10.7180    10.7180    10.7180 C             1 RES     
     314 Br          11.6081    10.7180    11.3471 Br            1 RES     
     315 H            9.8279    10.7180    11.3471 H             1 RES     
     316 C           10.7180     9.4604     9.8292 C             1 RES     
     317 Br           9.8279     9.4604     9.2001 Br            1 RES     
     318 H           11.6081     9.4604     9.2001 H             1 RES     
     319 C           10.7180     8.2027    10.7180 C             1 RES     
     320 Br          11.6081     8.2027    11.3471 Br            1 RES     
     321 H            9.8279     8.2027    11.3471 H             1 RES     
     322 C           10.7180     6.9451     9.8292 C             1 RES     
     323 Br           9.8279     6.9451     9.2001 Br            1 RES     
     324 H           11.6081     6.9451     9.2001 H             1 RES     
@<TRIPOS>BOND
       1       55       58 1
       2      199      202 1
       3      211      212 1
       4      103      106 1
       5      316      317 1
       6      166      163 1
       7      280      282 1
       8      235      238 1
       9      286      288 1
      10      313      314 1
      11      262      264 1
      12      256      258 1
      13      241      244 1
      14      217      219 1
      15      313      315 1
      16      249      247 1
      17      145      148 1
      18       22       24 1
      19       88       89 1
      20       25       28 1
      21       55       57 1
      22      199      201 1
      23      216      214 1
      24      226      227 1
      25      109      112 1
      26       25       27 1
      27       43       44 1
      28       37       38 1
      29       70       71 1
      30      187      188 1
      31       31       32 1
      32      115      118 1
      33      175      176 1
      34      181      182 1
      35        7        8 1
      36       85       86 1
      37      136      137 1
      38      307      310 1
      39      103      104 1
      40      130      131 1
      41      289      290 1
      42       10       11 1
      43      133      136 1
      44      196      199 1
      45        1        4 1
      46      121      124 1
      47      151      153 1
      48      259      261 1
      49      295      298 1
      50      175      178 1
      51      243      241 1
      52      118      119 1
      53      115      117 1
      54      145      146 1
      55      157      159 1
      56      221      220 1
      57      223      220 1
      58      310      311 1
      59       13       16 1
      60       79       82 1
      61       37       39 1
      62      181      183 1
      63      271      274 1
      64      232      234 1
      65      100      102 1
      66      226      228 1
      67      139      142 1
      68       79       80 1
      69       85       88 1
      70       13       14 1
      71       16       18 1
      72       82       84 1
      73      106      107 1
      74      247      248 1
      75      274      276 1
      76      271      272 1
      77      208      210 1
      78      283      286 1
      79       34       31 1
      80       64       65 1
      81      322      323 1
      82       92       91 1
      83      220      217 1
      84      250      247 1
      85      298      299 1
      86       67       69 1
      87      292      294 1
      88      106      108 1
      89      295      296 1
      90      160      162 1
      91        4        6 1
      92       73       76 1
      93      169      172 1
      94      280      283 1
      95       40       41 1
      96      184      185 1
      97      169      171 1
      98       58       59 1
      99      181      184 1
     100      202      203 1
     101       76       78 1
     102      109      110 1
     103       64       67 1
     104      160      161 1
     105      268      270 1
     106        1        3 1
     107       31       33 1
     108      175      177 1
     109      310      312 1
     110      222      220 1
     111      229      232 1
     112      208      209 1
     113      223      225 1
     114       19       16 1
     115       34       35 1
     116       43       45 1
     117       70       72 1
     118      145      147 1
     119      178      179 1
     120      187      189 1
     121      295      297 1
     122      283      285 1
     123       97       98 1
     124      124      125 1
     125       13       15 1
     126       79       81 1
     127      160      163 1
     128      163      164 1
     129      256      253 1
     130      268      271 1
     131      136      139 1
     132      271      273 1
     133      103      105 1
     134       28       31 1
     135       28       29 1
     136       58       60 1
     137       49       50 1
     138      118      120 1
     139      172      173 1
     140      142      144 1
     141      109      111 1
     142      172      175 1
     143      208      211 1
     144      187      184 1
     145      254      253 1
     146      307      309 1
     147        1        2 1
     148       46       48 1
     149      190      192 1
     150      251      250 1
     151      301      304 1
     152       94       95 1
     153       64       66 1
     154      250      252 1
     155      322      324 1
     156      112      113 1
     157      133      134 1
     158      166      167 1
     159      304      305 1
     160        7        4 1
     161      313      316 1
     162       61       62 1
     163      319      320 1
     164      255      253 1
     165      100      101 1
     166      226      223 1
     167       97       99 1
     168      204      202 1
     169      237      235 1
     170       73       75 1
     171       67       68 1
     172      205      208 1
     173      292      293 1
     174      115      116 1
     175       61       63 1
     176      157      158 1
     177       19       22 1
     178      127      128 1
     179      211      213 1
     180      307      308 1
     181       34       36 1
     182      178      180 1
     183      259      256 1
     184      319      321 1
     185      139      141 1
     186      244      245 1
     187      124      127 1
     188      259      262 1
     189      224      223 1
     190      148      149 1
     191       94       96 1
     192       93       91 1
     193      157      160 1
     194      193      194 1
     195       88       91 1
     196      239      238 1
     197      151      154 1
     198       61       64 1
     199       28       30 1
     200      139      140 1
     201      172      174 1
     202      247      244 1
     203      151      148 1
     204      148      150 1
     205       94       91 1
     206      218      217 1
     207      240      238 1
     208      112      115 1
     209      304      307 1
     210      136      138 1
     211      169      170 1
     212       10       12 1
     213       40       42 1
     214       73       74 1
     215      154      155 1
     216      184      186 1
     217      235      232 1
     218      124      126 1
     219        4        5 1
     220      289      292 1
     221      280      281 1
     222      286      287 1
     223      127      129 1
     224      316      319 1
     225      205      206 1
     226      265      266 1
     227      100      103 1
     228       88       90 1
     229       76       77 1
     230      259      260 1
     231      268      269 1
     232       97      100 1
     233       19       20 1
     234       37       40 1
     235       52       53 1
     236      196      197 1
     237      215      214 1
     238       22       23 1
     239       55       56 1
     240      112      114 1
     241      133      135 1
     242      166      168 1
     243      199      200 1
     244      304      306 1
     245      205      207 1
     246      322      319 1
     247       46       47 1
     248      190      191 1
     249      298      300 1
     250      316      318 1
     251       16       17 1
     252       82       83 1
     253      274      275 1
     254       19       21 1
     255       52       54 1
     256      196      198 1
     257      262      263 1
     258      130      132 1
     259      257      256 1
     260      289      291 1
     261      121      123 1
     262      151      152 1
     263      229      231 1
     264       55       52 1
     265      154      156 1
     266      244      246 1
     267       25       26 1
     268      280      277 1
     269      283      284 1
     270      241      242 1
     271      277      279 1
     272       49       51 1
     273      193      195 1
     274       49       52 1
     275      130      127 1
     276      142      143 1
     277      193      196 1
     278       76       79 1
     279      232      233 1
     280       40       43 1
     281      265      267 1
     282      301      303 1
     283      301      302 1
     284       43       46 1
     285      187      190 1
     286        7        9 1
     287       85       87 1
     288        7       10 1
     289       67       70 1
     290      163      165 1
     291      121      122 1
     292      229      230 1
     293      277      278 1
     294      292      295 1
     295      211      214 1
     296      265      268 1
     297      236      235 1
@<TRIPOS>SUBSTRUCTURE
       1 RES             1 RESIDUE    0 **** ROOT      0
