@<TRIPOS>MOLECULE
RES
288 264 1 0 1
SMALL
NO_CHARGES
@<TRIPOS>CRYSIN
   23.1862    22.1666    33.6793    90.0000    90.0000    90.0000  1  1
@<TRIPOS>ATOM
       1 C            0.0000     0.0000     0.0000 C             1 RES     
       2 H            1.0000     0.0000    -0.7000 H             1 RES     
       3 O           -1.0000     0.0000    -0.7000 O             1 RES     
       4 F            0.0000     1.0000     0.7000 F             1 RES     
       5 N            0.0000    -1.0000     0.7000 N             1 RES     
       6 C            0.0000     0.0000     9.4123 C             1 RES     
       7 H            1.0000     0.0000     8.7123 H             1 RES     
       8 O           -1.0000     0.0000     8.7123 O             1 RES     
       9 F            0.0000     1.0000    10.1123 F             1 RES     
      10 N            0.0000    -1.0000    10.1123 N             1 RES     
      11 C            0.0000     0.0000    18.8246 C             1 RES     
      12 H            1.0000     0.0000    18.1246 H             1 RES     
      13 O           -1.0000     0.0000    18.1246 O             1 RES     
      14 F            0.0000     1.0000    19.5246 F             1 RES     
      15 N            0.0000    -1.0000    19.5246 N             1 RES     
      16 C            0.0000     9.4123     0.0000 C             1 RES     
      17 H            1.0000     9.4123    -0.7000 H             1 RES     
      18 O           -1.0000     9.4123    -0.7000 O             1 RES     
      19 F            0.0000    10.4123     0.7000 F             1 RES     
      20 N            0.0000     8.4123     0.7000 N             1 RES     
      21 C            0.0000     9.4123     9.4123 C             1 RES     
      22 H            1.0000     9.4123     8.7123 H             1 RES     
      23 O           -1.0000     9.4123     8.7123 O             1 RES     
      24 F            0.0000    10.4123    10.1123 F             1 RES     
      25 N            0.0000     8.4123    10.1123 N             1 RES     
      26 C            0.0000     9.4123    18.8246 C             1 RES     
      27 H            1.0000     9.4123    18.1246 H             1 RES     
      28 O           -1.0000     9.4123    18.1246 O             1 RES     
      29 F            0.0000    10.4123    19.5246 F             1 RES     
      30 N            0.0000     8.4123    19.5246 N             1 RES     
      31 C            9.4123     0.0000     0.0000 C             1 RES     
      32 H           10.4123     0.0000    -0.7000 H             1 RES     
      33 O            8.4123     0.0000    -0.7000 O             1 RES     
      34 F            9.4123     1.0000     0.7000 F             1 RES     
      35 N            9.4123    -1.0000     0.7000 N             1 RES     
      36 C            9.4123     0.0000     9.4123 C             1 RES     
      37 H           10.4123     0.0000     8.7123 H             1 RES     
      38 O            8.4123     0.0000     8.7123 O             1 RES     
      39 F            9.4123     1.0000    10.1123 F             1 RES     
      40 N            9.4123    -1.0000    10.1123 N             1 RES     
      41 C            9.4123     0.0000    18.8246 C             1 RES     
      42 H           10.4123     0.0000    18.1246 H             1 RES     
      43 O            8.4123     0.0000    18.1246 O             1 RES     
      44 F            9.4123     1.0000    19.5246 F             1 RES     
      45 N            9.4123    -1.0000    19.5246 N             1 RES     
      46 C            9.4123     9.4123     0.0000 C             1 RES     
      47 H           10.4123     9.4123    -0.7000 H             1 RES     
      48 O            8.4123     9.4123    -0.7000 O             1 RES     
      49 F            9.4123    10.4123     0.7000 F             1 RES     
      50 N            9.4123     8.4123     0.7000 N             1 RES     
      51 C            9.4123     9.4123     9.4123 C             1 RES     
      52 H           10.4123     9.4123     8.7123 H             1 RES     
      53 O            8.4123     9.4123     8.7123 O             1 RES     
      54 F            9.4123    10.4123    10.1123 F             1 RES     
      55 N            9.4123     8.4123    10.1123 N             1 RES     
      56 C            9.4123     9.4123    18.8246 C             1 RES     
      57 H           10.4123     9.4123    18.1246 H             1 RES     
      58 O            8.4123     9.4123    18.1246 O             1 RES     
      59 F            9.4123    10.4123    19.5246 F             1 RES     
      60 N            9.4123     8.4123    19.5246 N             1 RES     
      61 C            6.7126     5.5243     7.9185 C             1 RES     
      62 O            6.7219     6.7543     7.9185 O             1 RES     
      63 O            6.7194     4.6747     9.1547 O             1 RES     
      64 C            6.7039     5.5950     6.7458 C             1 RES     
      65 Br           5.8138     6.2240     6.7458 Br            1 RES     
      66 H            7.5941     6.2240     6.7458 H             1 RES     
      67 C            6.7039     4.7062     5.4882 C             1 RES     
      68 Br           7.5941     4.0771     5.4882 Br            1 RES     
      69 H            5.8138     4.0771     5.4882 H             1 RES     
      70 C            6.7039     5.5950     4.2306 C             1 RES     
      71 Br           5.8138     6.2240     4.2306 Br            1 RES     
      72 H            7.5941     6.2240     4.2306 H             1 RES     
      73 C            6.7039     4.7061     2.9730 C             1 RES     
      74 Br           7.5941     4.0771     2.9730 Br            1 RES     
      75 H            5.8138     4.0771     2.9730 H             1 RES     
      76 C            6.7039     4.7466     1.7725 C             1 RES     
      77 H            7.7739     4.7466     1.7725 H             1 RES     
      78 H            6.3469     4.8360     0.7676 H             1 RES     
      79 H            6.3469     3.8312     2.1978 H             1 RES     
      80 C            6.7126     5.5243    17.3308 C             1 RES     
      81 O            6.7219     6.7543    17.3308 O             1 RES     
      82 O            6.7194     4.6747    18.5670 O             1 RES     
      83 C            6.7039     5.5950    16.1581 C             1 RES     
      84 Br           5.8138     6.2240    16.1581 Br            1 RES     
      85 H            7.5941     6.2240    16.1581 H             1 RES     
      86 C            6.7039     4.7062    14.9005 C             1 RES     
      87 Br           7.5941     4.0771    14.9005 Br            1 RES     
      88 H            5.8138     4.0771    14.9005 H             1 RES     
      89 C            6.7039     5.5950    13.6429 C             1 RES     
      90 Br           5.8138     6.2240    13.6429 Br            1 RES     
      91 H            7.5941     6.2240    13.6429 H             1 RES     
      92 C            6.7039     4.7061    12.3853 C             1 RES     
      93 Br           7.5941     4.0771    12.3853 Br            1 RES     
      94 H            5.8138     4.0771    12.3853 H             1 RES     
      95 C            6.7039     4.7466    11.1848 C             1 RES     
      96 H            7.7739     4.7466    11.1848 H             1 RES     
      97 H            6.3469     4.8360    10.1799 H             1 RES     
      98 H            6.3469     3.8312    11.6101 H             1 RES     
      99 C            6.7126     5.5243    26.7431 C             1 RES     
     100 O            6.7219     6.7543    26.7431 O             1 RES     
     101 O            6.7194     4.6747    27.9793 O             1 RES     
     102 C            6.7039     5.5950    25.5704 C             1 RES     
     103 Br           5.8138     6.2240    25.5704 Br            1 RES     
     104 H            7.5941     6.2240    25.5704 H             1 RES     
     105 C            6.7039     4.7062    24.3128 C             1 RES     
     106 Br           7.5941     4.0771    24.3128 Br            1 RES     
     107 H            5.8138     4.0771    24.3128 H             1 RES     
     108 C            6.7039     5.5950    23.0552 C             1 RES     
     109 Br           5.8138     6.2240    23.0552 Br            1 RES     
     110 H            7.5941     6.2240    23.0552 H             1 RES     
     111 C            6.7039     4.7061    21.7976 C             1 RES     
     112 Br           7.5941     4.0771    21.7976 Br            1 RES     
     113 H            5.8138     4.0771    21.7976 H             1 RES     
     114 C            6.7039     4.7466    20.5971 C             1 RES     
     115 H            7.7739     4.7466    20.5971 H             1 RES     
     116 H            6.3469     4.8360    19.5922 H             1 RES     
     117 H            6.3469     3.8312    21.0224 H             1 RES     
     118 C            6.7126    14.9366     7.9185 C             1 RES     
     119 O            6.7219    16.1666     7.9185 O             1 RES     
     120 O            6.7194    14.0870     9.1547 O             1 RES     
     121 C            6.7039    15.0073     6.7458 C             1 RES     
     122 Br           5.8138    15.6363     6.7458 Br            1 RES     
     123 H            7.5941    15.6363     6.7458 H             1 RES     
     124 C            6.7039    14.1185     5.4882 C             1 RES     
     125 Br           7.5941    13.4894     5.4882 Br            1 RES     
     126 H            5.8138    13.4894     5.4882 H             1 RES     
     127 C            6.7039    15.0073     4.2306 C             1 RES     
     128 Br           5.8138    15.6363     4.2306 Br            1 RES     
     129 H            7.5941    15.6363     4.2306 H             1 RES     
     130 C            6.7039    14.1185     2.9730 C             1 RES     
     131 Br           7.5941    13.4894     2.9730 Br            1 RES     
     132 H            5.8138    13.4894     2.9730 H             1 RES     
     133 C            6.7039    14.1589     1.7725 C             1 RES     
     134 H            7.7739    14.1589     1.7725 H             1 RES     
     135 H            6.3469    14.2483     0.7676 H             1 RES     
     136 H            6.3469    13.2435     2.1978 H             1 RES     
     137 C            6.7126    14.9366    17.3308 C             1 RES     
     138 O            6.7219    16.1666    17.3308 O             1 RES     
     139 O            6.7194    14.0870    18.5670 O             1 RES     
     140 C            6.7039    15.0073    16.1581 C             1 RES     
     141 Br           5.8138    15.6363    16.1581 Br            1 RES     
     142 H            7.5941    15.6363    16.1581 H             1 RES     
     143 C            6.7039    14.1185    14.9005 C             1 RES     
     144 Br           7.5941    13.4894    14.9005 Br            1 RES     
     145 H            5.8138    13.4894    14.9005 H             1 RES     
     146 C            6.7039    15.0073    13.6429 C             1 RES     
     147 Br           5.8138    15.6363    13.6429 Br            1 RES     
     148 H            7.5941    15.6363    13.6429 H             1 RES     
     149 C            6.7039    14.1185    12.3853 C             1 RES     
     150 Br           7.5941    13.4894    12.3853 Br            1 RES     
     151 H            5.8138    13.4894    12.3853 H             1 RES     
     152 C            6.7039    14.1589    11.1848 C             1 RES     
     153 H            7.7739    14.1589    11.1848 H             1 RES     
     154 H            6.3469    14.2483    10.1799 H             1 RES     
     155 H            6.3469    13.2435    11.6101 H             1 RES     
     156 C            6.7126    14.9366    26.7431 C             1 RES     
     157 O            6.7219    16.1666    26.7431 O             1 RES     
     158 O            6.7194    14.0870    27.9793 O             1 RES     
     159 C            6.7039    15.0073    25.5704 C             1 RES     
     160 Br           5.8138    15.6363    25.5704 Br            1 RES     
     161 H            7.5941    15.6363    25.5704 H             1 RES     
     162 C            6.7039    14.1185    24.3128 C             1 RES     
     163 Br           7.5941    13.4894    24.3128 Br            1 RES     
     164 H            5.8138    13.4894    24.3128 H             1 RES     
     165 C            6.7039    15.0073    23.0552 C             1 RES     
     166 Br           5.8138    15.6363    23.0552 Br            1 RES     
     167 H            7.5941    15.6363    23.0552 H             1 RES     
     168 C            6.7039    14.1185    21.7976 C             1 RES     
     169 Br           7.5941    13.4894    21.7976 Br            1 RES     
     170 H            5.8138    13.4894    21.7976 H             1 RES     
     171 C            6.7039    14.1589    20.5971 C             1 RES     
     172 H            7.7739    14.1589    20.5971 H             1 RES     
     173 H            6.3469    14.2483    19.5922 H             1 RES     
     174 H            6.3469    13.2435    21.0224 H             1 RES     
     175 C           16.1249     5.5243     7.9185 C             1 RES     
     176 O           16.1342     6.7543     7.9185 O             1 RES     
     177 O           16.1317     4.6747     9.1547 O             1 RES     
     178 C           16.1162     5.5950     6.7458 C             1 RES     
     179 Br          15.2261     6.2240     6.7458 Br            1 RES     
     180 H           17.0064     6.2240     6.7458 H             1 RES     
     181 C           16.1162     4.7062     5.4882 C             1 RES     
     182 Br          17.0064     4.0771     5.4882 Br            1 RES     
     183 H           15.2261     4.0771     5.4882 H             1 RES     
     184 C           16.1162     5.5950     4.2306 C             1 RES     
     185 Br          15.2261     6.2240     4.2306 Br            1 RES     
     186 H           17.0064     6.2240     4.2306 H             1 RES     
     187 C           16.1162     4.7061     2.9730 C             1 RES     
     188 Br          17.0064     4.0771     2.9730 Br            1 RES     
     189 H           15.2261     4.0771     2.9730 H             1 RES     
     190 C           16.1162     4.7466     1.7725 C             1 RES     
     191 H           17.1862     4.7466     1.7725 H             1 RES     
     192 H           15.7592     4.8360     0.7676 H             1 RES     
     193 H           15.7592     3.8312     2.1978 H             1 RES     
     194 C           16.1249     5.5243    17.3308 C             1 RES     
     195 O           16.1342     6.7543    17.3308 O             1 RES     
     196 O           16.1317     4.6747    18.5670 O             1 RES     
     197 C           16.1162     5.5950    16.1581 C             1 RES     
     198 Br          15.2261     6.2240    16.1581 Br            1 RES     
     199 H           17.0064     6.2240    16.1581 H             1 RES     
     200 C           16.1162     4.7062    14.9005 C             1 RES     
     201 Br          17.0064     4.0771    14.9005 Br            1 RES     
     202 H           15.2261     4.0771    14.9005 H             1 RES     
     203 C           16.1162     5.5950    13.6429 C             1 RES     
     204 Br          15.2261     6.2240    13.6429 Br            1 RES     
     205 H           17.0064     6.2240    13.6429 H             1 RES     
     206 C           16.1162     4.7061    12.3853 C             1 RES     
     207 Br          17.0064     4.0771    12.3853 Br            1 RES     
     208 H           15.2261     4.0771    12.3853 H             1 RES     
     209 C           16.1162     4.7466    11.1848 C             1 RES     
     210 H           17.1862     4.7466    11.1848 H             1 RES     
     211 H           15.7592     4.8360    10.1799 H             1 RES     
     212 H           15.7592     3.8312    11.6101 H             1 RES     
     213 C           16.1249     5.5243    26.7431 C             1 RES     
     214 O           16.1342     6.7543    26.7431 O             1 RES     
     215 O           16.1317     4.6747    27.9793 O             1 RES     
     216 C           16.1162     5.5950    25.5704 C             1 RES     
     217 Br          15.2261     6.2240    25.5704 Br            1 RES     
     218 H           17.0064     6.2240    25.5704 H             1 RES     
     219 C           16.1162     4.7062    24.3128 C             1 RES     
     220 Br          17.0064     4.0771    24.3128 Br            1 RES     
     221 H           15.2261     4.0771    24.3128 H             1 RES     
     222 C           16.1162     5.5950    23.0552 C             1 RES     
     223 Br          15.2261     6.2240    23.0552 Br            1 RES     
     224 H           17.0064     6.2240    23.0552 H             1 RES     
     225 C           16.1162     4.7061    21.7976 C             1 RES     
     226 Br          17.0064     4.0771    21.7976 Br            1 RES     
     227 H           15.2261     4.0771    21.7976 H             1 RES     
     228 C           16.1162     4.7466    20.5971 C             1 RES     
     229 H           17.1862     4.7466    20.5971 H             1 RES     
     230 H           15.7592     4.8360    19.5922 H             1 RES     
     231 H           15.7592     3.8312    21.0224 H             1 RES     
     232 C           16.1249    14.9366     7.9185 C             1 RES     
     233 O           16.1342    16.1666     7.9185 O             1 RES     
     234 O           16.1317    14.0870     9.1547 O             1 RES     
     235 C           16.1162    15.0073     6.7458 C             1 RES     
     236 Br          15.2261    15.6363     6.7458 Br            1 RES     
     237 H           17.0064    15.6363     6.7458 H             1 RES     
     238 C           16.1162    14.1185     5.4882 C             1 RES     
     239 Br          17.0064    13.4894     5.4882 Br            1 RES     
     240 H           15.2261    13.4894     5.4882 H             1 RES     
     241 C           16.1162    15.0073     4.2306 C             1 RES     
     242 Br          15.2261    15.6363     4.2306 Br            1 RES     
     243 H           17.0064    15.6363     4.2306 H             1 RES     
     244 C           16.1162    14.1185     2.9730 C             1 RES     
     245 Br          17.0064    13.4894     2.9730 Br            1 RES     
     246 H           15.2261    13.4894     2.9730 H             1 RES     
     247 C           16.1162    14.1589     1.7725 C             1 RES     
     248 H           17.1862    14.1589     1.7725 H             1 RES     
     249 H           15.7592    14.2483     0.7676 H             1 RES     
     250 H           15.7592    13.2435     2.1978 H             1 RES     
     251 C           16.1249    14.9366    17.3308 C             1 RES     
     252 O           16.1342    16.1666    17.3308 O             1 RES     
     253 O           16.1317    14.0870    18.5670 O             1 RES     
     254 C           16.1162    15.0073    16.1581 C             1 RES     
     255 Br          15.2261    15.6363    16.1581 Br            1 RES     
     256 H           17.0064    15.6363    16.1581 H             1 RES     
     257 C           16.1162    14.1185    14.9005 C             1 RES     
     258 Br          17.0064    13.4894    14.9005 Br            1 RES     
     259 H           15.2261    13.4894    14.9005 H             1 RES     
     260 C           16.1162    15.0073    13.6429 C             1 RES     
     261 Br          15.2261    15.6363    13.6429 Br            1 RES     
     262 H           17.0064    15.6363    13.6429 H             1 RES     
     263 C           16.1162    14.1185    12.3853 C             1 RES     
     264 Br          17.0064    13.4894    12.3853 Br            1 RES     
     265 H           15.2261    13.4894    12.3853 H             1 RES     
     266 C           16.1162    14.1589    11.1848 C             1 RES     
     267 H           17.1862    14.1589    11.1848 H             1 RES     
     268 H           15.7592    14.2483    10.1799 H             1 RES     
     269 H           15.7592    13.2435    11.6101 H             1 RES     
     270 C           16.1249    14.9366    26.7431 C             1 RES     
     271 O           16.1342    16.1666    26.7431 O             1 RES     
     272 O           16.1317    14.0870    27.9793 O             1 RES     
     273 C           16.1162    15.0073    25.5704 C             1 RES     
     274 Br          15.2261    15.6363    25.5704 Br            1 RES     
     275 H           17.0064    15.6363    25.5704 H             1 RES     
     276 C           16.1162    14.1185    24.3128 C             1 RES     
     277 Br          17.0064    13.4894    24.3128 Br            1 RES     
     278 H           15.2261    13.4894    24.3128 H             1 RES     
     279 C           16.1162    15.0073    23.0552 C             1 RES     
     280 Br          15.2261    15.6363    23.0552 Br            1 RES     
     281 H           17.0064    15.6363    23.0552 H             1 RES     
     282 C           16.1162    14.1185    21.7976 C             1 RES     
     283 Br          17.0064    13.4894    21.7976 Br            1 RES     
     284 H           15.2261    13.4894    21.7976 H             1 RES     
     285 C           16.1162    14.1589    20.5971 C             1 RES     
     286 H           17.1862    14.1589    20.5971 H             1 RES     
     287 H           15.7592    14.2483    19.5922 H             1 RES     
     288 H           15.7592    13.2435    21.0224 H             1 RES     
@<TRIPOS>BOND
       1       86       83 1
       2      247      249 1
       3      140      142 1
       4      146      148 1
       5      171      173 1
       6      216      218 1
       7       70       72 1
       8       21       23 1
       9      225      227 1
      10      124      126 1
      11       56       58 1
      12       26       28 1
      13      276      277 1
      14      102       99 1
      15      206      207 1
      16      105      106 1
      17      175      178 1
      18      194      197 1
      19      171      174 1
      20        1        2 1
      21      175      177 1
      22      111      113 1
      23      133      134 1
      24      273      274 1
      25      184      185 1
      26       11       15 1
      27       31       32 1
      28       83       84 1
      29      270      271 1
      30      257      260 1
      31      102      103 1
      32       99      100 1
      33       86       89 1
      34      152      154 1
      35      222      224 1
      36      130      132 1
      37      228      229 1
      38      121      123 1
      39      190      187 1
      40      181      183 1
      41      276      278 1
      42      206      208 1
      43        6        8 1
      44      282      284 1
      45      187      188 1
      46      257      258 1
      47      197      198 1
      48       36       38 1
      49      105      107 1
      50      203      205 1
      51       86       87 1
      52      143      146 1
      53      232      234 1
      54       61       63 1
      55       64       67 1
      56       67       69 1
      57      168      169 1
      58      238      239 1
      59       16       17 1
      60       46       47 1
      61       67       68 1
      62      156      157 1
      63      118      121 1
      64      156      159 1
      65      187      189 1
      66      257      259 1
      67       86       88 1
      68      213      214 1
      69      149      152 1
      70      219      222 1
      71      114      116 1
      72      197      199 1
      73      127      129 1
      74      228      230 1
      75      159      160 1
      76      152      155 1
      77      127      130 1
      78       80       82 1
      79      251      253 1
      80       41       45 1
      81      140      143 1
      82      241      244 1
      83       70       73 1
      84      241      242 1
      85      108      111 1
      86      254      256 1
      87      203      204 1
      88      263      266 1
      89      149      146 1
      90       92       95 1
      91      162      165 1
      92       46       48 1
      93      215      213 1
      94      200      203 1
      95      114      115 1
      96      228      231 1
      97      143      145 1
      98      263      264 1
      99       92       93 1
     100      162      163 1
     101      108      109 1
     102      209      210 1
     103      232      235 1
     104      178      179 1
     105      279      280 1
     106       61       64 1
     107      137      138 1
     108        1        3 1
     109      254      255 1
     110      102      104 1
     111      184      186 1
     112      273      275 1
     113       31       33 1
     114       83       85 1
     115      133      135 1
     116      285      287 1
     117      165      166 1
     118      263      265 1
     119      168      170 1
     120       92       94 1
     121      162      164 1
     122      235      236 1
     123      266      267 1
     124       95       96 1
     125      238      240 1
     126       16       19 1
     127       16       18 1
     128       46       49 1
     129       56       59 1
     130       26       29 1
     131      194      196 1
     132      184      187 1
     133      219      220 1
     134      149      150 1
     135      257      254 1
     136       76       78 1
     137      273      270 1
     138       31       35 1
     139        1        5 1
     140      175      176 1
     141      266      269 1
     142       95       98 1
     143      181      182 1
     144        6        7 1
     145      282      283 1
     146      108      110 1
     147      209      211 1
     148      178      180 1
     149      279      281 1
     150       36       37 1
     151       11       12 1
     152      260      261 1
     153      190      191 1
     154       89       90 1
     155       41       42 1
     156      137      139 1
     157       31       34 1
     158      133      136 1
     159      285      288 1
     160      216      213 1
     161      200      202 1
     162      114      117 1
     163       80       81 1
     164      251      252 1
     165        1        4 1
     166      276      279 1
     167      105      108 1
     168      206      209 1
     169      232      233 1
     170       61       62 1
     171      247      250 1
     172       21       24 1
     173       51       54 1
     174       76       79 1
     175      127      128 1
     176      111      112 1
     177       56       60 1
     178       26       30 1
     179      118      120 1
     180       64       65 1
     181        6        9 1
     182      222      225 1
     183      219      221 1
     184      121      124 1
     185      149      151 1
     186       36       39 1
     187      137      140 1
     188      127      124 1
     189      225      228 1
     190      165      167 1
     191      118      119 1
     192      235      237 1
     193      266      268 1
     194      244      247 1
     195      235      238 1
     196       73       76 1
     197       95       97 1
     198       64       66 1
     199       16       20 1
     200      209      212 1
     201       46       50 1
     202      156      158 1
     203      285      286 1
     204      194      195 1
     205      168      171 1
     206      247      248 1
     207      140      141 1
     208      146      147 1
     209      171      172 1
     210      216      217 1
     211       67       70 1
     212       70       71 1
     213       21       22 1
     214       51       53 1
     215       51       52 1
     216      181      184 1
     217      168      165 1
     218      282      285 1
     219      111      114 1
     220      197      200 1
     221      152      153 1
     222      222      223 1
     223      121      122 1
     224      178      181 1
     225      216      219 1
     226      279      282 1
     227       80       83 1
     228       11       13 1
     229      260      262 1
     230      251      254 1
     231      190      192 1
     232       89       91 1
     233       41       43 1
     234      159      161 1
     235      130      133 1
     236      270      272 1
     237       99      101 1
     238       21       25 1
     239       51       55 1
     240      238      241 1
     241      241      243 1
     242       11       14 1
     243      190      193 1
     244      225      226 1
     245      124      125 1
     246       56       57 1
     247       41       44 1
     248       26       27 1
     249        6       10 1
     250       36       40 1
     251      260      263 1
     252       89       92 1
     253      159      162 1
     254      244      246 1
     255      143      144 1
     256      244      245 1
     257       73       75 1
     258       73       74 1
     259      273      276 1
     260      102      105 1
     261      203      206 1
     262       76       77 1
     263      130      131 1
     264      200      201 1
@<TRIPOS>SUBSTRUCTURE
       1 RES             1 RESIDUE    0 **** ROOT      0
