@<TRIPOS>MOLECULE
RES
288 264 1 0 1
SMALL
NO_CHARGES
@<TRIPOS>CRYSIN
   25.0064    23.6363    33.6793    90.0000    90.0000    90.0000  1  1
@<TRIPOS>ATOM
       1 C            0.0000     0.0000     0.0000 C             1 RES     
       2 H            1.0000     0.0000    -0.7000 H             1 RES     
       3 O           -1.0000     0.0000    -0.7000 O             1 RES     
       4 F            0.0000     1.0000     0.7000 F             1 RES     
       5 N            0.0000    -1.0000     0.7000 N             1 RES     
       6 C            0.0000     0.0000     9.4123 C             1 RES     
       7 H            1.0000     0.0000     8.7123 H             1 RES     
       8 O           -1.0000     0.0000     8.7123 O             1 RES     
       9 F            0.0000     1.0000    10.1123 F             1 RES     
      10 N            0.0000    -1.0000    10.1123 N             1 RES     
      11 C            0.0000     0.0000    18.8246 C             1 RES     
      12 H            1.0000     0.0000    18.1246 H             1 RES     
      13 O           -1.0000     0.0000    18.1246 O             1 RES     
      14 F            0.0000     1.0000    19.5246 F             1 RES     
      15 N            0.0000    -1.0000    19.5246 N             1 RES     
      16 C            0.0000     9.4123     0.0000 C             1 RES     
      17 H            1.0000     9.4123    -0.7000 H             1 RES     
      18 O           -1.0000     9.4123    -0.7000 O             1 RES     
      19 F            0.0000    10.4123     0.7000 F             1 RES     
      20 N            0.0000     8.4123     0.7000 N             1 RES     
      21 C            0.0000     9.4123     9.4123 C             1 RES     
      22 H            1.0000     9.4123     8.7123 H             1 RES     
      23 O           -1.0000     9.4123     8.7123 O             1 RES     
      24 F            0.0000    10.4123    10.1123 F             1 RES     
      25 N            0.0000     8.4123    10.1123 N             1 RES     
      26 C            0.0000     9.4123    18.8246 C             1 RES     
      27 H            1.0000     9.4123    18.1246 H             1 RES     
      28 O           -1.0000     9.4123    18.1246 O             1 RES     
      29 F            0.0000    10.4123    19.5246 F             1 RES     
      30 N            0.0000     8.4123    19.5246 N             1 RES     
      31 C            9.4123     0.0000     0.0000 C             1 RES     
      32 H           10.4123     0.0000    -0.7000 H             1 RES     
      33 O            8.4123     0.0000    -0.7000 O             1 RES     
      34 F            9.4123     1.0000     0.7000 F             1 RES     
      35 N            9.4123    -1.0000     0.7000 N             1 RES     
      36 C            9.4123     0.0000     9.4123 C             1 RES     
      37 H           10.4123     0.0000     8.7123 H             1 RES     
      38 O            8.4123     0.0000     8.7123 O             1 RES     
      39 F            9.4123     1.0000    10.1123 F             1 RES     
      40 N            9.4123    -1.0000    10.1123 N             1 RES     
      41 C            9.4123     0.0000    18.8246 C             1 RES     
      42 H           10.4123     0.0000    18.1246 H             1 RES     
      43 O            8.4123     0.0000    18.1246 O             1 RES     
      44 F            9.4123     1.0000    19.5246 F             1 RES     
      45 N            9.4123    -1.0000    19.5246 N             1 RES     
      46 C            9.4123     9.4123     0.0000 C             1 RES     
      47 H           10.4123     9.4123    -0.7000 H             1 RES     
      48 O            8.4123     9.4123    -0.7000 O             1 RES     
      49 F            9.4123    10.4123     0.7000 F             1 RES     
      50 N            9.4123     8.4123     0.7000 N             1 RES     
      51 C            9.4123     9.4123     9.4123 C             1 RES     
      52 H           10.4123     9.4123     8.7123 H             1 RES     
      53 O            8.4123     9.4123     8.7123 O             1 RES     
      54 F            9.4123    10.4123    10.1123 F             1 RES     
      55 N            9.4123     8.4123    10.1123 N             1 RES     
      56 C            9.4123     9.4123    18.8246 C             1 RES     
      57 H           10.4123     9.4123    18.1246 H             1 RES     
      58 O            8.4123     9.4123    18.1246 O             1 RES     
      59 F            9.4123    10.4123    19.5246 F             1 RES     
      60 N            9.4123     8.4123    19.5246 N             1 RES     
      61 C            6.7126     5.5243     7.9185 C             1 RES     
      62 O            6.7219     6.7543     7.9185 O             1 RES     
      63 O            6.7194     4.6747     9.1547 O             1 RES     
      64 C            8.7039     6.7061     8.7458 C             1 RES     
      65 Br           7.8138     6.0771     8.7458 Br            1 RES     
      66 H            9.5941     6.0771     8.7458 H             1 RES     
      67 C            8.7039     7.5950     7.4882 C             1 RES     
      68 Br           9.5941     8.2240     7.4882 Br            1 RES     
      69 H            7.8138     8.2240     7.4882 H             1 RES     
      70 C            8.7039     6.7061     6.2306 C             1 RES     
      71 Br           7.8138     6.0771     6.2306 Br            1 RES     
      72 H            9.5941     6.0771     6.2306 H             1 RES     
      73 C            8.7039     7.5950     4.9730 C             1 RES     
      74 Br           9.5941     8.2240     4.9730 Br            1 RES     
      75 H            7.8138     8.2240     4.9730 H             1 RES     
      76 C            6.7039     4.7466     1.7725 C             1 RES     
      77 H            7.7739     4.7466     1.7725 H             1 RES     
      78 H            6.3469     4.8360     0.7676 H             1 RES     
      79 H            6.3469     3.8312     2.1978 H             1 RES     
      80 C            6.7126     5.5243    17.3308 C             1 RES     
      81 O            6.7219     6.7543    17.3308 O             1 RES     
      82 O            6.7194     4.6747    18.5670 O             1 RES     
      83 C            8.7039     6.7061    18.1581 C             1 RES     
      84 Br           7.8138     6.0771    18.1581 Br            1 RES     
      85 H            9.5941     6.0771    18.1581 H             1 RES     
      86 C            8.7039     7.5950    16.9005 C             1 RES     
      87 Br           9.5941     8.2240    16.9005 Br            1 RES     
      88 H            7.8138     8.2240    16.9005 H             1 RES     
      89 C            8.7039     6.7061    15.6429 C             1 RES     
      90 Br           7.8138     6.0771    15.6429 Br            1 RES     
      91 H            9.5941     6.0771    15.6429 H             1 RES     
      92 C            8.7039     7.5950    14.3853 C             1 RES     
      93 Br           9.5941     8.2240    14.3853 Br            1 RES     
      94 H            7.8138     8.2240    14.3853 H             1 RES     
      95 C            6.7039     4.7466    11.1848 C             1 RES     
      96 H            7.7739     4.7466    11.1848 H             1 RES     
      97 H            6.3469     4.8360    10.1799 H             1 RES     
      98 H            6.3469     3.8312    11.6101 H             1 RES     
      99 C            6.7126     5.5243    26.7431 C             1 RES     
     100 O            6.7219     6.7543    26.7431 O             1 RES     
     101 O            6.7194     4.6747    27.9793 O             1 RES     
     102 C            8.7039     6.7061    27.5704 C             1 RES     
     103 Br           7.8138     6.0771    27.5704 Br            1 RES     
     104 H            9.5941     6.0771    27.5704 H             1 RES     
     105 C            8.7039     7.5950    26.3128 C             1 RES     
     106 Br           9.5941     8.2240    26.3128 Br            1 RES     
     107 H            7.8138     8.2240    26.3128 H             1 RES     
     108 C            8.7039     6.7061    25.0552 C             1 RES     
     109 Br           7.8138     6.0771    25.0552 Br            1 RES     
     110 H            9.5941     6.0771    25.0552 H             1 RES     
     111 C            8.7039     7.5950    23.7976 C             1 RES     
     112 Br           9.5941     8.2240    23.7976 Br            1 RES     
     113 H            7.8138     8.2240    23.7976 H             1 RES     
     114 C            6.7039     4.7466    20.5971 C             1 RES     
     115 H            7.7739     4.7466    20.5971 H             1 RES     
     116 H            6.3469     4.8360    19.5922 H             1 RES     
     117 H            6.3469     3.8312    21.0224 H             1 RES     
     118 C            6.7126    14.9366     7.9185 C             1 RES     
     119 O            6.7219    16.1666     7.9185 O             1 RES     
     120 O            6.7194    14.0870     9.1547 O             1 RES     
     121 C            8.7039    16.1184     8.7458 C             1 RES     
     122 Br           7.8138    15.4894     8.7458 Br            1 RES     
     123 H            9.5941    15.4894     8.7458 H             1 RES     
     124 C            8.7039    17.0073     7.4882 C             1 RES     
     125 Br           9.5941    17.6363     7.4882 Br            1 RES     
     126 H            7.8138    17.6363     7.4882 H             1 RES     
     127 C            8.7039    16.1184     6.2306 C             1 RES     
     128 Br           7.8138    15.4894     6.2306 Br            1 RES     
     129 H            9.5941    15.4894     6.2306 H             1 RES     
     130 C            8.7039    17.0073     4.9730 C             1 RES     
     131 Br           9.5941    17.6363     4.9730 Br            1 RES     
     132 H            7.8138    17.6363     4.9730 H             1 RES     
     133 C            6.7039    14.1589     1.7725 C             1 RES     
     134 H            7.7739    14.1589     1.7725 H             1 RES     
     135 H            6.3469    14.2483     0.7676 H             1 RES     
     136 H            6.3469    13.2435     2.1978 H             1 RES     
     137 C            6.7126    14.9366    17.3308 C             1 RES     
     138 O            6.7219    16.1666    17.3308 O             1 RES     
     139 O            6.7194    14.0870    18.5670 O             1 RES     
     140 C            8.7039    16.1184    18.1581 C             1 RES     
     141 Br           7.8138    15.4894    18.1581 Br            1 RES     
     142 H            9.5941    15.4894    18.1581 H             1 RES     
     143 C            8.7039    17.0073    16.9005 C             1 RES     
     144 Br           9.5941    17.6363    16.9005 Br            1 RES     
     145 H            7.8138    17.6363    16.9005 H             1 RES     
     146 C            8.7039    16.1184    15.6429 C             1 RES     
     147 Br           7.8138    15.4894    15.6429 Br            1 RES     
     148 H            9.5941    15.4894    15.6429 H             1 RES     
     149 C            8.7039    17.0073    14.3853 C             1 RES     
     150 Br           9.5941    17.6363    14.3853 Br            1 RES     
     151 H            7.8138    17.6363    14.3853 H             1 RES     
     152 C            6.7039    14.1589    11.1848 C             1 RES     
     153 H            7.7739    14.1589    11.1848 H             1 RES     
     154 H            6.3469    14.2483    10.1799 H             1 RES     
     155 H            6.3469    13.2435    11.6101 H             1 RES     
     156 C            6.7126    14.9366    26.7431 C             1 RES     
     157 O            6.7219    16.1666    26.7431 O             1 RES     
     158 O            6.7194    14.0870    27.9793 O             1 RES     
     159 C            8.7039    16.1184    27.5704 C             1 RES     
     160 Br           7.8138    15.4894    27.5704 Br            1 RES     
     161 H            9.5941    15.4894    27.5704 H             1 RES     
     162 C            8.7039    17.0073    26.3128 C             1 RES     
     163 Br           9.5941    17.6363    26.3128 Br            1 RES     
     164 H            7.8138    17.6363    26.3128 H             1 RES     
     165 C            8.7039    16.1184    25.0552 C             1 RES     
     166 Br           7.8138    15.4894    25.0552 Br            1 RES     
     167 H            9.5941    15.4894    25.0552 H             1 RES     
     168 C            8.7039    17.0073    23.7976 C             1 RES     
     169 Br           9.5941    17.6363    23.7976 Br            1 RES     
     170 H            7.8138    17.6363    23.7976 H             1 RES     
     171 C            6.7039    14.1589    20.5971 C             1 RES     
     172 H            7.7739    14.1589    20.5971 H             1 RES     
     173 H            6.3469    14.2483    19.5922 H             1 RES     
     174 H            6.3469    13.2435    21.0224 H             1 RES     
     175 C           16.1249     5.5243     7.9185 C             1 RES     
     176 O           16.1342     6.7543     7.9185 O             1 RES     
     177 O           16.1317     4.6747     9.1547 O             1 RES     
     178 C           18.1162     6.7061     8.7458 C             1 RES     
     179 Br          17.2261     6.0771     8.7458 Br            1 RES     
     180 H           19.0064     6.0771     8.7458 H             1 RES     
     181 C           18.1162     7.5950     7.4882 C             1 RES     
     182 Br          19.0064     8.2240     7.4882 Br            1 RES     
     183 H           17.2261     8.2240     7.4882 H             1 RES     
     184 C           18.1162     6.7061     6.2306 C             1 RES     
     185 Br          17.2261     6.0771     6.2306 Br            1 RES     
     186 H           19.0064     6.0771     6.2306 H             1 RES     
     187 C           18.1162     7.5950     4.9730 C             1 RES     
     188 Br          19.0064     8.2240     4.9730 Br            1 RES     
     189 H           17.2261     8.2240     4.9730 H             1 RES     
     190 C           16.1162     4.7466     1.7725 C             1 RES     
     191 H           17.1862     4.7466     1.7725 H             1 RES     
     192 H           15.7592     4.8360     0.7676 H             1 RES     
     193 H           15.7592     3.8312     2.1978 H             1 RES     
     194 C           16.1249     5.5243    17.3308 C             1 RES     
     195 O           16.1342     6.7543    17.3308 O             1 RES     
     196 O           16.1317     4.6747    18.5670 O             1 RES     
     197 C           18.1162     6.7061    18.1581 C             1 RES     
     198 Br          17.2261     6.0771    18.1581 Br            1 RES     
     199 H           19.0064     6.0771    18.1581 H             1 RES     
     200 C           18.1162     7.5950    16.9005 C             1 RES     
     201 Br          19.0064     8.2240    16.9005 Br            1 RES     
     202 H           17.2261     8.2240    16.9005 H             1 RES     
     203 C           18.1162     6.7061    15.6429 C             1 RES     
     204 Br          17.2261     6.0771    15.6429 Br            1 RES     
     205 H           19.0064     6.0771    15.6429 H             1 RES     
     206 C           18.1162     7.5950    14.3853 C             1 RES     
     207 Br          19.0064     8.2240    14.3853 Br            1 RES     
     208 H           17.2261     8.2240    14.3853 H             1 RES     
     209 C           16.1162     4.7466    11.1848 C             1 RES     
     210 H           17.1862     4.7466    11.1848 H             1 RES     
     211 H           15.7592     4.8360    10.1799 H             1 RES     
     212 H           15.7592     3.8312    11.6101 H             1 RES     
     213 C           16.1249     5.5243    26.7431 C             1 RES     
     214 O           16.1342     6.7543    26.7431 O             1 RES     
     215 O           16.1317     4.6747    27.9793 O             1 RES     
     216 C           18.1162     6.7061    27.5704 C             1 RES     
     217 Br          17.2261     6.0771    27.5704 Br            1 RES     
     218 H           19.0064     6.0771    27.5704 H             1 RES     
     219 C           18.1162     7.5950    26.3128 C             1 RES     
     220 Br          19.0064     8.2240    26.3128 Br            1 RES     
     221 H           17.2261     8.2240    26.3128 H             1 RES     
     222 C           18.1162     6.7061    25.0552 C             1 RES     
     223 Br          17.2261     6.0771    25.0552 Br            1 RES     
     224 H           19.0064     6.0771    25.0552 H             1 RES     
     225 C           18.1162     7.5950    23.7976 C             1 RES     
     226 Br          19.0064     8.2240    23.7976 Br            1 RES     
     227 H           17.2261     8.2240    23.7976 H             1 RES     
     228 C           16.1162     4.7466    20.5971 C             1 RES     
     229 H           17.1862     4.7466    20.5971 H             1 RES     
     230 H           15.7592     4.8360    19.5922 H             1 RES     
     231 H           15.7592     3.8312    21.0224 H             1 RES     
     232 C           16.1249    14.9366     7.9185 C             1 RES     
     233 O           16.1342    16.1666     7.9185 O             1 RES     
     234 O           16.1317    14.0870     9.1547 O             1 RES     
     235 C           18.1162    16.1184     8.7458 C             1 RES     
     236 Br          17.2261    15.4894     8.7458 Br            1 RES     
     237 H           19.0064    15.4894     8.7458 H             1 RES     
     238 C           18.1162    17.0073     7.4882 C             1 RES     
     239 Br          19.0064    17.6363     7.4882 Br            1 RES     
     240 H           17.2261    17.6363     7.4882 H             1 RES     
     241 C           18.1162    16.1184     6.2306 C             1 RES     
     242 Br          17.2261    15.4894     6.2306 Br            1 RES     
     243 H           19.0064    15.4894     6.2306 H             1 RES     
     244 C           18.1162    17.0073     4.9730 C             1 RES     
     245 Br          19.0064    17.6363     4.9730 Br            1 RES     
     246 H           17.2261    17.6363     4.9730 H             1 RES     
     247 C           16.1162    14.1589     1.7725 C             1 RES     
     248 H           17.1862    14.1589     1.7725 H             1 RES     
     249 H           15.7592    14.2483     0.7676 H             1 RES     
     250 H           15.7592    13.2435     2.1978 H             1 RES     
     251 C           16.1249    14.9366    17.3308 C             1 RES     
     252 O           16.1342    16.1666    17.3308 O             1 RES     
     253 O           16.1317    14.0870    18.5670 O             1 RES     
     254 C           18.1162    16.1184    18.1581 C             1 RES     
     255 Br          17.2261    15.4894    18.1581 Br            1 RES     
     256 H           19.0064    15.4894    18.1581 H             1 RES     
     257 C           18.1162    17.0073    16.9005 C             1 RES     
     258 Br          19.0064    17.6363    16.9005 Br            1 RES     
     259 H           17.2261    17.6363    16.9005 H             1 RES     
     260 C           18.1162    16.1184    15.6429 C             1 RES     
     261 Br          17.2261    15.4894    15.6429 Br            1 RES     
     262 H           19.0064    15.4894    15.6429 H             1 RES     
     263 C           18.1162    17.0073    14.3853 C             1 RES     
     264 Br          19.0064    17.6363    14.3853 Br            1 RES     
     265 H           17.2261    17.6363    14.3853 H             1 RES     
     266 C           16.1162    14.1589    11.1848 C             1 RES     
     267 H           17.1862    14.1589    11.1848 H             1 RES     
     268 H           15.7592    14.2483    10.1799 H             1 RES     
     269 H           15.7592    13.2435    11.6101 H             1 RES     
     270 C           16.1249    14.9366    26.7431 C             1 RES     
     271 O           16.1342    16.1666    26.7431 O             1 RES     
     272 O           16.1317    14.0870    27.9793 O             1 RES     
     273 C           18.1162    16.1184    27.5704 C             1 RES     
     274 Br          17.2261    15.4894    27.5704 Br            1 RES     
     275 H           19.0064    15.4894    27.5704 H             1 RES     
     276 C           18.1162    17.0073    26.3128 C             1 RES     
     277 Br          19.0064    17.6363    26.3128 Br            1 RES     
     278 H           17.2261    17.6363    26.3128 H             1 RES     
     279 C           18.1162    16.1184    25.0552 C             1 RES     
     280 Br          17.2261    15.4894    25.0552 Br            1 RES     
     281 H           19.0064    15.4894    25.0552 H             1 RES     
     282 C           18.1162    17.0073    23.7976 C             1 RES     
     283 Br          19.0064    17.6363    23.7976 Br            1 RES     
     284 H           17.2261    17.6363    23.7976 H             1 RES     
     285 C           16.1162    14.1589    20.5971 C             1 RES     
     286 H           17.1862    14.1589    20.5971 H             1 RES     
     287 H           15.7592    14.2483    19.5922 H             1 RES     
     288 H           15.7592    13.2435    21.0224 H             1 RES     
@<TRIPOS>BOND
       1      168      169 1
       2      238      239 1
       3       16       17 1
       4       46       47 1
       5      190      191 1
       6       41       42 1
       7       67       68 1
       8      159      160 1
       9      184      187 1
      10      254      257 1
      11       73       70 1
      12      197      200 1
      13      127      130 1
      14      194      196 1
      15      190      193 1
      16       41       44 1
      17      187      188 1
      18      257      258 1
      19       86       87 1
      20      140      142 1
      21      171      173 1
      22       70       72 1
      23      247      248 1
      24      146      147 1
      25      216      217 1
      26       21       22 1
      27       51       52 1
      28      181      184 1
      29       76       77 1
      30       21       25 1
      31       51       55 1
      32      225      227 1
      33      124      126 1
      34       56       58 1
      35      194      195 1
      36      130      131 1
      37      200      201 1
      38       26       28 1
      39       99      102 1
      40      241      243 1
      41      197      199 1
      42      127      129 1
      43      228      230 1
      44      184      185 1
      45      181      183 1
      46       83       84 1
      47        6        8 1
      48      282      284 1
      49      285      286 1
      50       36       38 1
      51      254      255 1
      52      114      115 1
      53       13       11 1
      54      111      113 1
      55      175      177 1
      56      102      105 1
      57      273      276 1
      58      276      279 1
      59      232      235 1
      60       61       64 1
      61       15       11 1
      62      165      167 1
      63      235      237 1
      64      266      268 1
      65       95       97 1
      66       64       66 1
      67      261      260 1
      68      285      288 1
      69       90       89 1
      70      114      117 1
      71      140      141 1
      72      171      172 1
      73       70       71 1
      74      241      242 1
      75      156      159 1
      76      137      139 1
      77      121      122 1
      78      247      250 1
      79       21       24 1
      80       51       54 1
      81      225      228 1
      82      124      127 1
      83       76       79 1
      84      111      112 1
      85        6       10 1
      86       36       40 1
      87      270      272 1
      88      263      266 1
      89        6        9 1
      90       36       39 1
      91      137      140 1
      92       56       60 1
      93      143      144 1
      94      190      192 1
      95      244      245 1
      96       73       74 1
      97       41       43 1
      98      159      161 1
      99       26       30 1
     100      159      162 1
     101       80       82 1
     102      251      253 1
     103      165      166 1
     104      235      236 1
     105      266      267 1
     106       95       96 1
     107       64       65 1
     108       46       49 1
     109      222      225 1
     110      137      138 1
     111      247      249 1
     112       80       83 1
     113      251      254 1
     114      146      148 1
     115      140      143 1
     116       31       34 1
     117      133      136 1
     118      216      218 1
     119       21       23 1
     120       51       53 1
     121        1        4 1
     122      118      119 1
     123      197      194 1
     124      152      155 1
     125      143      146 1
     126      285      282 1
     127       73       76 1
     128      232      233 1
     129      184      186 1
     130       83       85 1
     131      285      287 1
     132      152      153 1
     133      276      278 1
     134      222      223 1
     135      206      208 1
     136      232      234 1
     137      206      209 1
     138      165      168 1
     139      235      238 1
     140      225      226 1
     141      168      171 1
     142      219      221 1
     143       67       70 1
     144       61       63 1
     145      124      125 1
     146      149      151 1
     147       56       57 1
     148      238      241 1
     149       26       27 1
     150      263      264 1
     151       83       86 1
     152       92       93 1
     153      162      163 1
     154      244      241 1
     155      108      109 1
     156      209      210 1
     157      178      179 1
     158      279      280 1
     159       76       78 1
     160      219      216 1
     161      266      269 1
     162       95       98 1
     163      178      175 1
     164      209      212 1
     165      181      182 1
     166      168      170 1
     167        6        7 1
     168      282      283 1
     169       36       37 1
     170      238      240 1
     171      270      273 1
     172      105      107 1
     173       16       18 1
     174       46       48 1
     175       67       69 1
     176      133      135 1
     177      102      104 1
     178      273      275 1
     179       31       33 1
     180      203      205 1
     181      114      116 1
     182        1        3 1
     183      118      120 1
     184      262      260 1
     185      263      265 1
     186       92       94 1
     187      162      164 1
     188       91       89 1
     189      187      190 1
     190      257      260 1
     191      203      206 1
     192       86       89 1
     193      102      103 1
     194      273      274 1
     195       31       32 1
     196      133      134 1
     197       61       62 1
     198      203      204 1
     199        1        2 1
     200      149      152 1
     201       12       11 1
     202      219      222 1
     203      263      260 1
     204      108      111 1
     205      178      181 1
     206       31       35 1
     207       92       89 1
     208      279      282 1
     209      130      132 1
     210      200      202 1
     211        1        5 1
     212      143      145 1
     213      171      174 1
     214      244      246 1
     215       14       11 1
     216       73       75 1
     217      197      198 1
     218      127      128 1
     219      228      229 1
     220      152      154 1
     221      222      224 1
     222       56       59 1
     223       26       29 1
     224      121      123 1
     225       99      101 1
     226       92       95 1
     227      162      165 1
     228      187      189 1
     229      257      259 1
     230       86       88 1
     231      270      271 1
     232       99      100 1
     233      175      176 1
     234       41       45 1
     235      156      157 1
     236      108      110 1
     237      209      211 1
     238      178      180 1
     239      279      281 1
     240      254      256 1
     241      219      220 1
     242      149      150 1
     243       80       81 1
     244      251      252 1
     245       16       19 1
     246      133      130 1
     247      156      158 1
     248      121      124 1
     249      213      214 1
     250      228      231 1
     251      213      216 1
     252       16       20 1
     253      276      277 1
     254      206      207 1
     255      105      106 1
     256       46       50 1
     257      213      215 1
     258      244      247 1
     259       64       67 1
     260      200      203 1
     261      114      111 1
     262      146      149 1
     263      105      108 1
     264      118      121 1
@<TRIPOS>SUBSTRUCTURE
       1 RES             1 RESIDUE    0 **** ROOT      0
