@<TRIPOS>MOLECULE
RES
288 264 1 0 1
SMALL
NO_CHARGES
@<TRIPOS>CRYSIN
   23.1862    22.1666    33.6793    90.0000    90.0000    90.0000  1  1
@<TRIPOS>ATOM
       1 C            0.0000     0.0000     0.0000 C             1 RES     
       2 H            1.0000     0.0000    -0.7000 H             1 RES     
       3 O           -1.0000     0.0000    -0.7000 O             1 RES     
       4 F            0.0000    -1.0000     0.7000 F             1 RES     
       5 N            0.0000     1.0000     0.7000 N             1 RES     
       6 C            0.0000     0.0000     9.4123 C             1 RES     
       7 H            1.0000     0.0000     8.7123 H             1 RES     
       8 O           -1.0000     0.0000     8.7123 O             1 RES     
       9 F            0.0000    -1.0000    10.1123 F             1 RES     
      10 N            0.0000     1.0000    10.1123 N             1 RES     
      11 C            0.0000     0.0000    18.8246 C             1 RES     
      12 H            1.0000     0.0000    18.1246 H             1 RES     
      13 O           -1.0000     0.0000    18.1246 O             1 RES     
      14 F            0.0000    -1.0000    19.5246 F             1 RES     
      15 N            0.0000     1.0000    19.5246 N             1 RES     
      16 C            0.0000     9.4123     0.0000 C             1 RES     
      17 H            1.0000     9.4123    -0.7000 H             1 RES     
      18 O           -1.0000     9.4123    -0.7000 O             1 RES     
      19 F            0.0000     8.4123     0.7000 F             1 RES     
      20 N            0.0000    10.4123     0.7000 N             1 RES     
      21 C            0.0000     9.4123     9.4123 C             1 RES     
      22 H            1.0000     9.4123     8.7123 H             1 RES     
      23 O           -1.0000     9.4123     8.7123 O             1 RES     
      24 F            0.0000     8.4123    10.1123 F             1 RES     
      25 N            0.0000    10.4123    10.1123 N             1 RES     
      26 C            0.0000     9.4123    18.8246 C             1 RES     
      27 H            1.0000     9.4123    18.1246 H             1 RES     
      28 O           -1.0000     9.4123    18.1246 O             1 RES     
      29 F            0.0000     8.4123    19.5246 F             1 RES     
      30 N            0.0000    10.4123    19.5246 N             1 RES     
      31 C            9.4123     0.0000     0.0000 C             1 RES     
      32 H           10.4123     0.0000    -0.7000 H             1 RES     
      33 O            8.4123     0.0000    -0.7000 O             1 RES     
      34 F            9.4123    -1.0000     0.7000 F             1 RES     
      35 N            9.4123     1.0000     0.7000 N             1 RES     
      36 C            9.4123     0.0000     9.4123 C             1 RES     
      37 H           10.4123     0.0000     8.7123 H             1 RES     
      38 O            8.4123     0.0000     8.7123 O             1 RES     
      39 F            9.4123    -1.0000    10.1123 F             1 RES     
      40 N            9.4123     1.0000    10.1123 N             1 RES     
      41 C            9.4123     0.0000    18.8246 C             1 RES     
      42 H           10.4123     0.0000    18.1246 H             1 RES     
      43 O            8.4123     0.0000    18.1246 O             1 RES     
      44 F            9.4123    -1.0000    19.5246 F             1 RES     
      45 N            9.4123     1.0000    19.5246 N             1 RES     
      46 C            9.4123     9.4123     0.0000 C             1 RES     
      47 H           10.4123     9.4123    -0.7000 H             1 RES     
      48 O            8.4123     9.4123    -0.7000 O             1 RES     
      49 F            9.4123     8.4123     0.7000 F             1 RES     
      50 N            9.4123    10.4123     0.7000 N             1 RES     
      51 C            9.4123     9.4123     9.4123 C             1 RES     
      52 H           10.4123     9.4123     8.7123 H             1 RES     
      53 O            8.4123     9.4123     8.7123 O             1 RES     
      54 F            9.4123     8.4123    10.1123 F             1 RES     
      55 N            9.4123    10.4123    10.1123 N             1 RES     
      56 C            9.4123     9.4123    18.8246 C             1 RES     
      57 H           10.4123     9.4123    18.1246 H             1 RES     
      58 O            8.4123     9.4123    18.1246 O             1 RES     
      59 F            9.4123     8.4123    19.5246 F             1 RES     
      60 N            9.4123    10.4123    19.5246 N             1 RES     
      61 C            6.7126     5.5243     7.9185 C             1 RES     
      62 O            6.7219     6.7543     7.9185 O             1 RES     
      63 O            6.7194     4.6747     9.1547 O             1 RES     
      64 C            6.7039     4.7062     6.7458 C             1 RES     
      65 Br           5.8138     4.0771     6.7458 Br            1 RES     
      66 H            7.5941     4.0771     6.7458 H             1 RES     
      67 C            6.7039     5.5950     5.4882 C             1 RES     
      68 Br           7.5941     6.2240     5.4882 Br            1 RES     
      69 H            5.8138     6.2240     5.4882 H             1 RES     
      70 C            6.7039     4.7062     4.2306 C             1 RES     
      71 Br           5.8138     4.0771     4.2306 Br            1 RES     
      72 H            7.5941     4.0771     4.2306 H             1 RES     
      73 C            6.7039     5.5950     2.9730 C             1 RES     
      74 Br           7.5941     6.2240     2.9730 Br            1 RES     
      75 H            5.8138     6.2240     2.9730 H             1 RES     
      76 C            6.7039     4.7466     1.7725 C             1 RES     
      77 H            7.7739     4.7466     1.7725 H             1 RES     
      78 H            6.3469     4.8360     0.7676 H             1 RES     
      79 H            6.3469     3.8312     2.1978 H             1 RES     
      80 C            6.7126     5.5243    17.3308 C             1 RES     
      81 O            6.7219     6.7543    17.3308 O             1 RES     
      82 O            6.7194     4.6747    18.5670 O             1 RES     
      83 C            6.7039     4.7062    16.1581 C             1 RES     
      84 Br           5.8138     4.0771    16.1581 Br            1 RES     
      85 H            7.5941     4.0771    16.1581 H             1 RES     
      86 C            6.7039     5.5950    14.9005 C             1 RES     
      87 Br           7.5941     6.2240    14.9005 Br            1 RES     
      88 H            5.8138     6.2240    14.9005 H             1 RES     
      89 C            6.7039     4.7062    13.6429 C             1 RES     
      90 Br           5.8138     4.0771    13.6429 Br            1 RES     
      91 H            7.5941     4.0771    13.6429 H             1 RES     
      92 C            6.7039     5.5950    12.3853 C             1 RES     
      93 Br           7.5941     6.2240    12.3853 Br            1 RES     
      94 H            5.8138     6.2240    12.3853 H             1 RES     
      95 C            6.7039     4.7466    11.1848 C             1 RES     
      96 H            7.7739     4.7466    11.1848 H             1 RES     
      97 H            6.3469     4.8360    10.1799 H             1 RES     
      98 H            6.3469     3.8312    11.6101 H             1 RES     
      99 C            6.7126     5.5243    26.7431 C             1 RES     
     100 O            6.7219     6.7543    26.7431 O             1 RES     
     101 O            6.7194     4.6747    27.9793 O             1 RES     
     102 C            6.7039     4.7062    25.5704 C             1 RES     
     103 Br           5.8138     4.0771    25.5704 Br            1 RES     
     104 H            7.5941     4.0771    25.5704 H             1 RES     
     105 C            6.7039     5.5950    24.3128 C             1 RES     
     106 Br           7.5941     6.2240    24.3128 Br            1 RES     
     107 H            5.8138     6.2240    24.3128 H             1 RES     
     108 C            6.7039     4.7062    23.0552 C             1 RES     
     109 Br           5.8138     4.0771    23.0552 Br            1 RES     
     110 H            7.5941     4.0771    23.0552 H             1 RES     
     111 C            6.7039     5.5950    21.7976 C             1 RES     
     112 Br           7.5941     6.2240    21.7976 Br            1 RES     
     113 H            5.8138     6.2240    21.7976 H             1 RES     
     114 C            6.7039     4.7466    20.5971 C             1 RES     
     115 H            7.7739     4.7466    20.5971 H             1 RES     
     116 H            6.3469     4.8360    19.5922 H             1 RES     
     117 H            6.3469     3.8312    21.0224 H             1 RES     
     118 C            6.7126    14.9366     7.9185 C             1 RES     
     119 O            6.7219    16.1666     7.9185 O             1 RES     
     120 O            6.7194    14.0870     9.1547 O             1 RES     
     121 C            6.7039    14.1184     6.7458 C             1 RES     
     122 Br           5.8138    13.4894     6.7458 Br            1 RES     
     123 H            7.5941    13.4894     6.7458 H             1 RES     
     124 C            6.7039    15.0073     5.4882 C             1 RES     
     125 Br           7.5941    15.6363     5.4882 Br            1 RES     
     126 H            5.8138    15.6363     5.4882 H             1 RES     
     127 C            6.7039    14.1184     4.2306 C             1 RES     
     128 Br           5.8138    13.4894     4.2306 Br            1 RES     
     129 H            7.5941    13.4894     4.2306 H             1 RES     
     130 C            6.7039    15.0073     2.9730 C             1 RES     
     131 Br           7.5941    15.6363     2.9730 Br            1 RES     
     132 H            5.8138    15.6363     2.9730 H             1 RES     
     133 C            6.7039    14.1589     1.7725 C             1 RES     
     134 H            7.7739    14.1589     1.7725 H             1 RES     
     135 H            6.3469    14.2483     0.7676 H             1 RES     
     136 H            6.3469    13.2435     2.1978 H             1 RES     
     137 C            6.7126    14.9366    17.3308 C             1 RES     
     138 O            6.7219    16.1666    17.3308 O             1 RES     
     139 O            6.7194    14.0870    18.5670 O             1 RES     
     140 C            6.7039    14.1184    16.1581 C             1 RES     
     141 Br           5.8138    13.4894    16.1581 Br            1 RES     
     142 H            7.5941    13.4894    16.1581 H             1 RES     
     143 C            6.7039    15.0073    14.9005 C             1 RES     
     144 Br           7.5941    15.6363    14.9005 Br            1 RES     
     145 H            5.8138    15.6363    14.9005 H             1 RES     
     146 C            6.7039    14.1184    13.6429 C             1 RES     
     147 Br           5.8138    13.4894    13.6429 Br            1 RES     
     148 H            7.5941    13.4894    13.6429 H             1 RES     
     149 C            6.7039    15.0073    12.3853 C             1 RES     
     150 Br           7.5941    15.6363    12.3853 Br            1 RES     
     151 H            5.8138    15.6363    12.3853 H             1 RES     
     152 C            6.7039    14.1589    11.1848 C             1 RES     
     153 H            7.7739    14.1589    11.1848 H             1 RES     
     154 H            6.3469    14.2483    10.1799 H             1 RES     
     155 H            6.3469    13.2435    11.6101 H             1 RES     
     156 C            6.7126    14.9366    26.7431 C             1 RES     
     157 O            6.7219    16.1666    26.7431 O             1 RES     
     158 O            6.7194    14.0870    27.9793 O             1 RES     
     159 C            6.7039    14.1184    25.5704 C             1 RES     
     160 Br           5.8138    13.4894    25.5704 Br            1 RES     
     161 H            7.5941    13.4894    25.5704 H             1 RES     
     162 C            6.7039    15.0073    24.3128 C             1 RES     
     163 Br           7.5941    15.6363    24.3128 Br            1 RES     
     164 H            5.8138    15.6363    24.3128 H             1 RES     
     165 C            6.7039    14.1184    23.0552 C             1 RES     
     166 Br           5.8138    13.4894    23.0552 Br            1 RES     
     167 H            7.5941    13.4894    23.0552 H             1 RES     
     168 C            6.7039    15.0073    21.7976 C             1 RES     
     169 Br           7.5941    15.6363    21.7976 Br            1 RES     
     170 H            5.8138    15.6363    21.7976 H             1 RES     
     171 C            6.7039    14.1589    20.5971 C             1 RES     
     172 H            7.7739    14.1589    20.5971 H             1 RES     
     173 H            6.3469    14.2483    19.5922 H             1 RES     
     174 H            6.3469    13.2435    21.0224 H             1 RES     
     175 C           16.1249     5.5243     7.9185 C             1 RES     
     176 O           16.1342     6.7543     7.9185 O             1 RES     
     177 O           16.1317     4.6747     9.1547 O             1 RES     
     178 C           16.1162     4.7062     6.7458 C             1 RES     
     179 Br          15.2261     4.0771     6.7458 Br            1 RES     
     180 H           17.0064     4.0771     6.7458 H             1 RES     
     181 C           16.1162     5.5950     5.4882 C             1 RES     
     182 Br          17.0064     6.2240     5.4882 Br            1 RES     
     183 H           15.2261     6.2240     5.4882 H             1 RES     
     184 C           16.1162     4.7062     4.2306 C             1 RES     
     185 Br          15.2261     4.0771     4.2306 Br            1 RES     
     186 H           17.0064     4.0771     4.2306 H             1 RES     
     187 C           16.1162     5.5950     2.9730 C             1 RES     
     188 Br          17.0064     6.2240     2.9730 Br            1 RES     
     189 H           15.2261     6.2240     2.9730 H             1 RES     
     190 C           16.1162     4.7466     1.7725 C             1 RES     
     191 H           17.1862     4.7466     1.7725 H             1 RES     
     192 H           15.7592     4.8360     0.7676 H             1 RES     
     193 H           15.7592     3.8312     2.1978 H             1 RES     
     194 C           16.1249     5.5243    17.3308 C             1 RES     
     195 O           16.1342     6.7543    17.3308 O             1 RES     
     196 O           16.1317     4.6747    18.5670 O             1 RES     
     197 C           16.1162     4.7062    16.1581 C             1 RES     
     198 Br          15.2261     4.0771    16.1581 Br            1 RES     
     199 H           17.0064     4.0771    16.1581 H             1 RES     
     200 C           16.1162     5.5950    14.9005 C             1 RES     
     201 Br          17.0064     6.2240    14.9005 Br            1 RES     
     202 H           15.2261     6.2240    14.9005 H             1 RES     
     203 C           16.1162     4.7062    13.6429 C             1 RES     
     204 Br          15.2261     4.0771    13.6429 Br            1 RES     
     205 H           17.0064     4.0771    13.6429 H             1 RES     
     206 C           16.1162     5.5950    12.3853 C             1 RES     
     207 Br          17.0064     6.2240    12.3853 Br            1 RES     
     208 H           15.2261     6.2240    12.3853 H             1 RES     
     209 C           16.1162     4.7466    11.1848 C             1 RES     
     210 H           17.1862     4.7466    11.1848 H             1 RES     
     211 H           15.7592     4.8360    10.1799 H             1 RES     
     212 H           15.7592     3.8312    11.6101 H             1 RES     
     213 C           16.1249     5.5243    26.7431 C             1 RES     
     214 O           16.1342     6.7543    26.7431 O             1 RES     
     215 O           16.1317     4.6747    27.9793 O             1 RES     
     216 C           16.1162     4.7062    25.5704 C             1 RES     
     217 Br          15.2261     4.0771    25.5704 Br            1 RES     
     218 H           17.0064     4.0771    25.5704 H             1 RES     
     219 C           16.1162     5.5950    24.3128 C             1 RES     
     220 Br          17.0064     6.2240    24.3128 Br            1 RES     
     221 H           15.2261     6.2240    24.3128 H             1 RES     
     222 C           16.1162     4.7062    23.0552 C             1 RES     
     223 Br          15.2261     4.0771    23.0552 Br            1 RES     
     224 H           17.0064     4.0771    23.0552 H             1 RES     
     225 C           16.1162     5.5950    21.7976 C             1 RES     
     226 Br          17.0064     6.2240    21.7976 Br            1 RES     
     227 H           15.2261     6.2240    21.7976 H             1 RES     
     228 C           16.1162     4.7466    20.5971 C             1 RES     
     229 H           17.1862     4.7466    20.5971 H             1 RES     
     230 H           15.7592     4.8360    19.5922 H             1 RES     
     231 H           15.7592     3.8312    21.0224 H             1 RES     
     232 C           16.1249    14.9366     7.9185 C             1 RES     
     233 O           16.1342    16.1666     7.9185 O             1 RES     
     234 O           16.1317    14.0870     9.1547 O             1 RES     
     235 C           16.1162    14.1184     6.7458 C             1 RES     
     236 Br          15.2261    13.4894     6.7458 Br            1 RES     
     237 H           17.0064    13.4894     6.7458 H             1 RES     
     238 C           16.1162    15.0073     5.4882 C             1 RES     
     239 Br          17.0064    15.6363     5.4882 Br            1 RES     
     240 H           15.2261    15.6363     5.4882 H             1 RES     
     241 C           16.1162    14.1184     4.2306 C             1 RES     
     242 Br          15.2261    13.4894     4.2306 Br            1 RES     
     243 H           17.0064    13.4894     4.2306 H             1 RES     
     244 C           16.1162    15.0073     2.9730 C             1 RES     
     245 Br          17.0064    15.6363     2.9730 Br            1 RES     
     246 H           15.2261    15.6363     2.9730 H             1 RES     
     247 C           16.1162    14.1589     1.7725 C             1 RES     
     248 H           17.1862    14.1589     1.7725 H             1 RES     
     249 H           15.7592    14.2483     0.7676 H             1 RES     
     250 H           15.7592    13.2435     2.1978 H             1 RES     
     251 C           16.1249    14.9366    17.3308 C             1 RES     
     252 O           16.1342    16.1666    17.3308 O             1 RES     
     253 O           16.1317    14.0870    18.5670 O             1 RES     
     254 C           16.1162    14.1184    16.1581 C             1 RES     
     255 Br          15.2261    13.4894    16.1581 Br            1 RES     
     256 H           17.0064    13.4894    16.1581 H             1 RES     
     257 C           16.1162    15.0073    14.9005 C             1 RES     
     258 Br          17.0064    15.6363    14.9005 Br            1 RES     
     259 H           15.2261    15.6363    14.9005 H             1 RES     
     260 C           16.1162    14.1184    13.6429 C             1 RES     
     261 Br          15.2261    13.4894    13.6429 Br            1 RES     
     262 H           17.0064    13.4894    13.6429 H             1 RES     
     263 C           16.1162    15.0073    12.3853 C             1 RES     
     264 Br          17.0064    15.6363    12.3853 Br            1 RES     
     265 H           15.2261    15.6363    12.3853 H             1 RES     
     266 C           16.1162    14.1589    11.1848 C             1 RES     
     267 H           17.1862    14.1589    11.1848 H             1 RES     
     268 H           15.7592    14.2483    10.1799 H             1 RES     
     269 H           15.7592    13.2435    11.6101 H             1 RES     
     270 C           16.1249    14.9366    26.7431 C             1 RES     
     271 O           16.1342    16.1666    26.7431 O             1 RES     
     272 O           16.1317    14.0870    27.9793 O             1 RES     
     273 C           16.1162    14.1184    25.5704 C             1 RES     
     274 Br          15.2261    13.4894    25.5704 Br            1 RES     
     275 H           17.0064    13.4894    25.5704 H             1 RES     
     276 C           16.1162    15.0073    24.3128 C             1 RES     
     277 Br          17.0064    15.6363    24.3128 Br            1 RES     
     278 H           15.2261    15.6363    24.3128 H             1 RES     
     279 C           16.1162    14.1184    23.0552 C             1 RES     
     280 Br          15.2261    13.4894    23.0552 Br            1 RES     
     281 H           17.0064    13.4894    23.0552 H             1 RES     
     282 C           16.1162    15.0073    21.7976 C             1 RES     
     283 Br          17.0064    15.6363    21.7976 Br            1 RES     
     284 H           15.2261    15.6363    21.7976 H             1 RES     
     285 C           16.1162    14.1589    20.5971 C             1 RES     
     286 H           17.1862    14.1589    20.5971 H             1 RES     
     287 H           15.7592    14.2483    19.5922 H             1 RES     
     288 H           15.7592    13.2435    21.0224 H             1 RES     
@<TRIPOS>BOND
       1      181      184 1
       2      152      153 1
       3      232      233 1
       4      273      274 1
       5      187      184 1
       6      276      278 1
       7       81       80 1
       8       11       13 1
       9       31       34 1
      10       83       84 1
      11      222      225 1
      12      247      250 1
      13      260      263 1
      14      140      143 1
      15      133      136 1
      16      257      260 1
      17      270      273 1
      18      181      183 1
      19      118      119 1
      20      186      184 1
      21      251      252 1
      22      102      104 1
      23      108      109 1
      24      133      134 1
      25      190      191 1
      26      206      209 1
      27      270      271 1
      28      146      148 1
      29      168      169 1
      30      225      226 1
      31      219      221 1
      32        6        7 1
      33       92       93 1
      34       99      102 1
      35      260      261 1
      36      171      172 1
      37      282      284 1
      38      285      286 1
      39      178      181 1
      40      279      280 1
      41      162      165 1
      42      194      197 1
      43      235      237 1
      44      266      268 1
      45      222      224 1
      46      209      210 1
      47      206      208 1
      48      216      217 1
      49      244      246 1
      50       70       73 1
      51       89       91 1
      52       83       85 1
      53      285      282 1
      54       95       96 1
      55       70       71 1
      56       63       61 1
      57       73       75 1
      58      124      127 1
      59      149      151 1
      60      127      128 1
      61      209      212 1
      62       21       23 1
      63       51       53 1
      64       56       58 1
      65       61       62 1
      66       41       43 1
      67      102      103 1
      68      130      132 1
      69       36       40 1
      70      238      239 1
      71       95       97 1
      72       73       76 1
      73      219      222 1
      74      279      281 1
      75      270      272 1
      76      251      253 1
      77      247      249 1
      78      241      243 1
      79      149      146 1
      80      266      269 1
      81      165      168 1
      82      165      167 1
      83      105      106 1
      84      184      185 1
      85       16       18 1
      86       46       48 1
      87       67       69 1
      88      127      130 1
      89      247      248 1
      90      162      164 1
      91       41       44 1
      92       76       79 1
      93      190      192 1
      94      190      193 1
      95      149      150 1
      96      251      254 1
      97      203      200 1
      98      228      225 1
      99      216      219 1
     100       83       80 1
     101      108      110 1
     102      133      135 1
     103      140      141 1
     104      102      105 1
     105      209      211 1
     106      228      231 1
     107      137      139 1
     108      159      161 1
     109       36       37 1
     110       86       87 1
     111      175      178 1
     112       70       72 1
     113      197      198 1
     114      213      214 1
     115      114      117 1
     116       67       70 1
     117      254      255 1
     118      105      108 1
     119       82       80 1
     120       92       94 1
     121        6        8 1
     122      108      111 1
     123      285      287 1
     124        1        2 1
     125       26       27 1
     126      187      188 1
     127       21       24 1
     128       51       54 1
     129      114      115 1
     130       16       19 1
     131       26       29 1
     132       46       49 1
     133       56       59 1
     134       51       55 1
     135       21       25 1
     136      152      155 1
     137      111      113 1
     138      162      163 1
     139       64       67 1
     140      219      220 1
     141       92       95 1
     142      187      189 1
     143      241      242 1
     144       99      101 1
     145      127      129 1
     146      203      204 1
     147      122      121 1
     148        6       10 1
     149      124      125 1
     150        1        4 1
     151       89       90 1
     152      147      146 1
     153       86       88 1
     154        6        9 1
     155      285      288 1
     156      263      264 1
     157      171      174 1
     158      130      131 1
     159       83       86 1
     160      232      234 1
     161       16       20 1
     162       46       50 1
     163      206      207 1
     164      124      126 1
     165      152      154 1
     166      244      245 1
     167      257      258 1
     168      273      276 1
     169      273      275 1
     170      140      142 1
     171      197      199 1
     172       11       15 1
     173      228      230 1
     174      254      257 1
     175       57       56 1
     176       31       32 1
     177      143      144 1
     178      162      159 1
     179      213      215 1
     180      244      247 1
     181      156      159 1
     182      197      200 1
     183      276      279 1
     184        1        3 1
     185       26       28 1
     186      137      138 1
     187      159      160 1
     188      156      157 1
     189       52       51 1
     190       22       21 1
     191       56       60 1
     192       95       98 1
     193       26       30 1
     194       31       33 1
     195      111      114 1
     196      123      121 1
     197      143      145 1
     198      175      176 1
     199      203      206 1
     200      225      227 1
     201      118      120 1
     202      263      265 1
     203      105      107 1
     204      171      173 1
     205       36       38 1
     206      165      166 1
     207      124      121 1
     208      222      223 1
     209      263      266 1
     210       64       61 1
     211      114      116 1
     212      216      218 1
     213      257      259 1
     214      254      256 1
     215       64       65 1
     216      194      196 1
     217       89       92 1
     218       11       12 1
     219      140      137 1
     220      279      282 1
     221       16       17 1
     222        1        5 1
     223       46       47 1
     224       67       68 1
     225       99      100 1
     226      194      195 1
     227      235      236 1
     228       86       89 1
     229       76       77 1
     230      178      179 1
     231      244      241 1
     232      181      182 1
     233      203      205 1
     234      111      112 1
     235      238      240 1
     236      156      158 1
     237       73       74 1
     238      228      229 1
     239       41       45 1
     240       76       78 1
     241      178      180 1
     242       11       14 1
     243      235      238 1
     244      276      277 1
     245      238      241 1
     246      260      262 1
     247       36       39 1
     248      118      121 1
     249       42       41 1
     250       64       66 1
     251      200      201 1
     252      266      267 1
     253      143      146 1
     254       31       35 1
     255      187      190 1
     256      168      170 1
     257      232      235 1
     258      130      133 1
     259      149      152 1
     260      168      171 1
     261      282      283 1
     262      200      202 1
     263      175      177 1
     264      213      216 1
@<TRIPOS>SUBSTRUCTURE
       1 RES             1 RESIDUE    0 **** ROOT      0
