@<TRIPOS>MOLECULE
RES
204 180 1 0 1
SMALL
NO_CHARGES
@<TRIPOS>CRYSIN
   13.0746    12.8959    16.6366    90.0000    90.0000    90.0000  1  1
@<TRIPOS>ATOM
       1 C            0.0000     0.0000     0.0000 C             1 RES     
       2 H            1.0000     0.0000    -0.7000 H             1 RES     
       3 O           -1.0000     0.0000    -0.7000 O             1 RES     
       4 F            0.0000    -1.0000     0.7000 F             1 RES     
       5 N            0.0000     1.0000     0.7000 N             1 RES     
       6 C            0.0000     0.0000     4.1230 C             1 RES     
       7 H            1.0000     0.0000     3.4230 H             1 RES     
       8 O           -1.0000     0.0000     3.4230 O             1 RES     
       9 F            0.0000    -1.0000     4.8230 F             1 RES     
      10 N            0.0000     1.0000     4.8230 N             1 RES     
      11 C            0.0000     0.0000     8.2460 C             1 RES     
      12 H            1.0000     0.0000     7.5460 H             1 RES     
      13 O           -1.0000     0.0000     7.5460 O             1 RES     
      14 F            0.0000    -1.0000     8.9460 F             1 RES     
      15 N            0.0000     1.0000     8.9460 N             1 RES     
      16 C            0.0000     4.1230     0.0000 C             1 RES     
      17 H            1.0000     4.1230    -0.7000 H             1 RES     
      18 O           -1.0000     4.1230    -0.7000 O             1 RES     
      19 F            0.0000     3.1230     0.7000 F             1 RES     
      20 N            0.0000     5.1230     0.7000 N             1 RES     
      21 C            0.0000     4.1230     4.1230 C             1 RES     
      22 H            1.0000     4.1230     3.4230 H             1 RES     
      23 O           -1.0000     4.1230     3.4230 O             1 RES     
      24 F            0.0000     3.1230     4.8230 F             1 RES     
      25 N            0.0000     5.1230     4.8230 N             1 RES     
      26 C            0.0000     4.1230     8.2460 C             1 RES     
      27 H            1.0000     4.1230     7.5460 H             1 RES     
      28 O           -1.0000     4.1230     7.5460 O             1 RES     
      29 F            0.0000     3.1230     8.9460 F             1 RES     
      30 N            0.0000     5.1230     8.9460 N             1 RES     
      31 C            4.1230     0.0000     0.0000 C             1 RES     
      32 H            5.1230     0.0000    -0.7000 H             1 RES     
      33 O            3.1230     0.0000    -0.7000 O             1 RES     
      34 F            4.1230    -1.0000     0.7000 F             1 RES     
      35 N            4.1230     1.0000     0.7000 N             1 RES     
      36 C            4.1230     0.0000     4.1230 C             1 RES     
      37 H            5.1230     0.0000     3.4230 H             1 RES     
      38 O            3.1230     0.0000     3.4230 O             1 RES     
      39 F            4.1230    -1.0000     4.8230 F             1 RES     
      40 N            4.1230     1.0000     4.8230 N             1 RES     
      41 C            4.1230     0.0000     8.2460 C             1 RES     
      42 H            5.1230     0.0000     7.5460 H             1 RES     
      43 O            3.1230     0.0000     7.5460 O             1 RES     
      44 F            4.1230    -1.0000     8.9460 F             1 RES     
      45 N            4.1230     1.0000     8.9460 N             1 RES     
      46 C            4.1230     4.1230     0.0000 C             1 RES     
      47 H            5.1230     4.1230    -0.7000 H             1 RES     
      48 O            3.1230     4.1230    -0.7000 O             1 RES     
      49 F            4.1230     3.1230     0.7000 F             1 RES     
      50 N            4.1230     5.1230     0.7000 N             1 RES     
      51 C            4.1230     4.1230     4.1230 C             1 RES     
      52 H            5.1230     4.1230     3.4230 H             1 RES     
      53 O            3.1230     4.1230     3.4230 O             1 RES     
      54 F            4.1230     3.1230     4.8230 F             1 RES     
      55 N            4.1230     5.1230     4.8230 N             1 RES     
      56 C            4.1230     4.1230     8.2460 C             1 RES     
      57 H            5.1230     4.1230     7.5460 H             1 RES     
      58 O            3.1230     4.1230     7.5460 O             1 RES     
      59 F            4.1230     3.1230     8.9460 F             1 RES     
      60 N            4.1230     5.1230     8.9460 N             1 RES     
      61 C            2.0615     2.0615     2.0615 C             1 RES     
      62 Br           2.9516     2.0615     2.6906 Br            1 RES     
      63 H            1.1714     2.0615     2.6906 H             1 RES     
      64 C            2.0615     0.8039     1.1727 C             1 RES     
      65 Br           1.1714     0.8039     0.5436 Br            1 RES     
      66 H            2.9516     0.8039     0.5436 H             1 RES     
      67 C            2.0615    -0.4538     2.0615 C             1 RES     
      68 Br           2.9516    -0.4538     2.6906 Br            1 RES     
      69 H            1.1714    -0.4538     2.6906 H             1 RES     
      70 C            2.0615    -1.7114     1.1727 C             1 RES     
      71 Br           1.1714    -1.7114     0.5436 Br            1 RES     
      72 H            2.9516    -1.7114     0.5436 H             1 RES     
      73 C            2.0615     2.0615     6.1845 C             1 RES     
      74 Br           2.9516     2.0615     6.8136 Br            1 RES     
      75 H            1.1714     2.0615     6.8136 H             1 RES     
      76 C            2.0615     0.8039     5.2957 C             1 RES     
      77 Br           1.1714     0.8039     4.6666 Br            1 RES     
      78 H            2.9516     0.8039     4.6666 H             1 RES     
      79 C            2.0615    -0.4538     6.1845 C             1 RES     
      80 Br           2.9516    -0.4538     6.8136 Br            1 RES     
      81 H            1.1714    -0.4538     6.8136 H             1 RES     
      82 C            2.0615    -1.7114     5.2957 C             1 RES     
      83 Br           1.1714    -1.7114     4.6666 Br            1 RES     
      84 H            2.9516    -1.7114     4.6666 H             1 RES     
      85 C            2.0615     2.0615    10.3075 C             1 RES     
      86 Br           2.9516     2.0615    10.9366 Br            1 RES     
      87 H            1.1714     2.0615    10.9366 H             1 RES     
      88 C            2.0615     0.8039     9.4187 C             1 RES     
      89 Br           1.1714     0.8039     8.7896 Br            1 RES     
      90 H            2.9516     0.8039     8.7896 H             1 RES     
      91 C            2.0615    -0.4538    10.3075 C             1 RES     
      92 Br           2.9516    -0.4538    10.9366 Br            1 RES     
      93 H            1.1714    -0.4538    10.9366 H             1 RES     
      94 C            2.0615    -1.7114     9.4187 C             1 RES     
      95 Br           1.1714    -1.7114     8.7896 Br            1 RES     
      96 H            2.9516    -1.7114     8.7896 H             1 RES     
      97 C            2.0615     6.1845     2.0615 C             1 RES     
      98 Br           2.9516     6.1845     2.6906 Br            1 RES     
      99 H            1.1714     6.1845     2.6906 H             1 RES     
     100 C            2.0615     4.9269     1.1727 C             1 RES     
     101 Br           1.1714     4.9269     0.5436 Br            1 RES     
     102 H            2.9516     4.9269     0.5436 H             1 RES     
     103 C            2.0615     3.6692     2.0615 C             1 RES     
     104 Br           2.9516     3.6692     2.6906 Br            1 RES     
     105 H            1.1714     3.6692     2.6906 H             1 RES     
     106 C            2.0615     2.4116     1.1727 C             1 RES     
     107 Br           1.1714     2.4116     0.5436 Br            1 RES     
     108 H            2.9516     2.4116     0.5436 H             1 RES     
     109 C            2.0615     6.1845     6.1845 C             1 RES     
     110 Br           2.9516     6.1845     6.8136 Br            1 RES     
     111 H            1.1714     6.1845     6.8136 H             1 RES     
     112 C            2.0615     4.9269     5.2957 C             1 RES     
     113 Br           1.1714     4.9269     4.6666 Br            1 RES     
     114 H            2.9516     4.9269     4.6666 H             1 RES     
     115 C            2.0615     3.6692     6.1845 C             1 RES     
     116 Br           2.9516     3.6692     6.8136 Br            1 RES     
     117 H            1.1714     3.6692     6.8136 H             1 RES     
     118 C            2.0615     2.4116     5.2957 C             1 RES     
     119 Br           1.1714     2.4116     4.6666 Br            1 RES     
     120 H            2.9516     2.4116     4.6666 H             1 RES     
     121 C            2.0615     6.1845    10.3075 C             1 RES     
     122 Br           2.9516     6.1845    10.9366 Br            1 RES     
     123 H            1.1714     6.1845    10.9366 H             1 RES     
     124 C            2.0615     4.9269     9.4187 C             1 RES     
     125 Br           1.1714     4.9269     8.7896 Br            1 RES     
     126 H            2.9516     4.9269     8.7896 H             1 RES     
     127 C            2.0615     3.6692    10.3075 C             1 RES     
     128 Br           2.9516     3.6692    10.9366 Br            1 RES     
     129 H            1.1714     3.6692    10.9366 H             1 RES     
     130 C            2.0615     2.4116     9.4187 C             1 RES     
     131 Br           1.1714     2.4116     8.7896 Br            1 RES     
     132 H            2.9516     2.4116     8.7896 H             1 RES     
     133 C            6.1845     2.0615     2.0615 C             1 RES     
     134 Br           7.0746     2.0615     2.6906 Br            1 RES     
     135 H            5.2944     2.0615     2.6906 H             1 RES     
     136 C            6.1845     0.8039     1.1727 C             1 RES     
     137 Br           5.2944     0.8039     0.5436 Br            1 RES     
     138 H            7.0746     0.8039     0.5436 H             1 RES     
     139 C            6.1845    -0.4538     2.0615 C             1 RES     
     140 Br           7.0746    -0.4538     2.6906 Br            1 RES     
     141 H            5.2944    -0.4538     2.6906 H             1 RES     
     142 C            6.1845    -1.7114     1.1727 C             1 RES     
     143 Br           5.2944    -1.7114     0.5436 Br            1 RES     
     144 H            7.0746    -1.7114     0.5436 H             1 RES     
     145 C            6.1845     2.0615     6.1845 C             1 RES     
     146 Br           7.0746     2.0615     6.8136 Br            1 RES     
     147 H            5.2944     2.0615     6.8136 H             1 RES     
     148 C            6.1845     0.8039     5.2957 C             1 RES     
     149 Br           5.2944     0.8039     4.6666 Br            1 RES     
     150 H            7.0746     0.8039     4.6666 H             1 RES     
     151 C            6.1845    -0.4538     6.1845 C             1 RES     
     152 Br           7.0746    -0.4538     6.8136 Br            1 RES     
     153 H            5.2944    -0.4538     6.8136 H             1 RES     
     154 C            6.1845    -1.7114     5.2957 C             1 RES     
     155 Br           5.2944    -1.7114     4.6666 Br            1 RES     
     156 H            7.0746    -1.7114     4.6666 H             1 RES     
     157 C            6.1845     2.0615    10.3075 C             1 RES     
     158 Br           7.0746     2.0615    10.9366 Br            1 RES     
     159 H            5.2944     2.0615    10.9366 H             1 RES     
     160 C            6.1845     0.8039     9.4187 C             1 RES     
     161 Br           5.2944     0.8039     8.7896 Br            1 RES     
     162 H            7.0746     0.8039     8.7896 H             1 RES     
     163 C            6.1845    -0.4538    10.3075 C             1 RES     
     164 Br           7.0746    -0.4538    10.9366 Br            1 RES     
     165 H            5.2944    -0.4538    10.9366 H             1 RES     
     166 C            6.1845    -1.7114     9.4187 C             1 RES     
     167 Br           5.2944    -1.7114     8.7896 Br            1 RES     
     168 H            7.0746    -1.7114     8.7896 H             1 RES     
     169 C            6.1845     6.1845     2.0615 C             1 RES     
     170 Br           7.0746     6.1845     2.6906 Br            1 RES     
     171 H            5.2944     6.1845     2.6906 H             1 RES     
     172 C            6.1845     4.9269     1.1727 C             1 RES     
     173 Br           5.2944     4.9269     0.5436 Br            1 RES     
     174 H            7.0746     4.9269     0.5436 H             1 RES     
     175 C            6.1845     3.6692     2.0615 C             1 RES     
     176 Br           7.0746     3.6692     2.6906 Br            1 RES     
     177 H            5.2944     3.6692     2.6906 H             1 RES     
     178 C            6.1845     2.4116     1.1727 C             1 RES     
     179 Br           5.2944     2.4116     0.5436 Br            1 RES     
     180 H            7.0746     2.4116     0.5436 H             1 RES     
     181 C            6.1845     6.1845     6.1845 C             1 RES     
     182 Br           7.0746     6.1845     6.8136 Br            1 RES     
     183 H            5.2944     6.1845     6.8136 H             1 RES     
     184 C            6.1845     4.9269     5.2957 C             1 RES     
     185 Br           5.2944     4.9269     4.6666 Br            1 RES     
     186 H            7.0746     4.9269     4.6666 H             1 RES     
     187 C            6.1845     3.6692     6.1845 C             1 RES     
     188 Br           7.0746     3.6692     6.8136 Br            1 RES     
     189 H            5.2944     3.6692     6.8136 H             1 RES     
     190 C            6.1845     2.4116     5.2957 C             1 RES     
     191 Br           5.2944     2.4116     4.6666 Br            1 RES     
     192 H            7.0746     2.4116     4.6666 H             1 RES     
     193 C            6.1845     6.1845    10.3075 C             1 RES     
     194 Br           7.0746     6.1845    10.9366 Br            1 RES     
     195 H            5.2944     6.1845    10.9366 H             1 RES     
     196 C            6.1845     4.9269     9.4187 C             1 RES     
     197 Br           5.2944     4.9269     8.7896 Br            1 RES     
     198 H            7.0746     4.9269     8.7896 H             1 RES     
     199 C            6.1845     3.6692    10.3075 C             1 RES     
     200 Br           7.0746     3.6692    10.9366 Br            1 RES     
     201 H            5.2944     3.6692    10.9366 H             1 RES     
     202 C            6.1845     2.4116     9.4187 C             1 RES     
     203 Br           5.2944     2.4116     8.7896 Br            1 RES     
     204 H            7.0746     2.4116     8.7896 H             1 RES     
@<TRIPOS>BOND
       1      187      188 1
       2      124      126 1
       3      151      153 1
       4      100      102 1
       5       26       28 1
       6       56       58 1
       7       79       80 1
       8      133      134 1
       9       31       33 1
      10       97       98 1
      11      166      167 1
      12      193      196 1
      13       61       63 1
      14      181      183 1
      15       79       82 1
      16       76       77 1
      17       26       30 1
      18        1        4 1
      19       56       60 1
      20       73       75 1
      21      106      108 1
      22      103      104 1
      23      184      185 1
      24      199      200 1
      25      130      132 1
      26        6        7 1
      27       70       71 1
      28       36       39 1
      29       61       64 1
      30       67       69 1
      31      109      111 1
      32      142      144 1
      33       79       81 1
      34      196      198 1
      35      169      171 1
      36      100      103 1
      37      202      203 1
      38      160      161 1
      39        6        9 1
      40      148      149 1
      41      160      157 1
      42      136      137 1
      43      163      165 1
      44       36       38 1
      45       51       55 1
      46       21       25 1
      47      202      204 1
      48       88       89 1
      49       61       62 1
      50      127      130 1
      51      103      105 1
      52       91       94 1
      53      112      114 1
      54      139      141 1
      55       31       34 1
      56      106      103 1
      57       47       46 1
      58      151      154 1
      59      124      127 1
      60       32       31 1
      61      175      178 1
      62      112      113 1
      63      193      195 1
      64       31       35 1
      65       46       48 1
      66      115      118 1
      67       11       15 1
      68      172      175 1
      69       36       40 1
      70       41       44 1
      71      166      168 1
      72       91       92 1
      73      175      176 1
      74       94       96 1
      75       21       22 1
      76       51       52 1
      77       82       83 1
      78      115      116 1
      79      112      115 1
      80       76       78 1
      81      199      201 1
      82      178      179 1
      83        6        8 1
      84       70       72 1
      85      148      150 1
      86      175      177 1
      87      157      158 1
      88       88       91 1
      89       11       14 1
      90       16       20 1
      91      127      128 1
      92      202      199 1
      93      139      140 1
      94      160      162 1
      95      169      170 1
      96       64       65 1
      97      118      119 1
      98      181      184 1
      99       16       19 1
     100       11       12 1
     101      190      191 1
     102       42       41 1
     103      196      197 1
     104       16       18 1
     105       82       84 1
     106      169      172 1
     107      172      173 1
     108      163      164 1
     109       67       68 1
     110       11       13 1
     111      109      110 1
     112      142      143 1
     113      190      192 1
     114       41       45 1
     115      181      182 1
     116      127      129 1
     117      145      148 1
     118      109      112 1
     119      133      136 1
     120      178      180 1
     121       94       95 1
     122       37       36 1
     123       91       93 1
     124       97      100 1
     125      157      159 1
     126       46       49 1
     127       64       67 1
     128      184      187 1
     129      184      186 1
     130      145      147 1
     131       21       23 1
     132       51       53 1
     133      148      151 1
     134       16       17 1
     135       27       26 1
     136       57       56 1
     137      124      125 1
     138      151      152 1
     139       88       90 1
     140      187      190 1
     141       41       43 1
     142        6       10 1
     143      196      199 1
     144      130      131 1
     145        1        5 1
     146       97       99 1
     147        1        2 1
     148      123      121 1
     149      142      139 1
     150      160      163 1
     151      172      174 1
     152       64       66 1
     153      118      120 1
     154      136      138 1
     155      187      189 1
     156       73       76 1
     157       46       50 1
     158      124      121 1
     159        1        3 1
     160       26       29 1
     161       56       59 1
     162      100      101 1
     163      136      139 1
     164       85       87 1
     165      145      146 1
     166       21       24 1
     167       51       54 1
     168       85       88 1
     169      154      156 1
     170      154      155 1
     171       70       67 1
     172      133      135 1
     173      121      122 1
     174       76       79 1
     175      115      117 1
     176      163      166 1
     177       85       86 1
     178       73       74 1
     179      106      107 1
     180      193      194 1
@<TRIPOS>SUBSTRUCTURE
       1 RES             1 RESIDUE    0 **** ROOT      0
