@<TRIPOS>MOLECULE
RES
288 264 1 0 1
SMALL
NO_CHARGES
@<TRIPOS>CRYSIN
   23.1862    22.1666    33.6793    90.0000    90.0000    90.0000  1  1
@<TRIPOS>ATOM
       1 C            0.0000     0.0000     0.0000 C             1 RES     
       2 H            1.0000     0.0000    -0.7000 H             1 RES     
       3 O           -1.0000     0.0000    -0.7000 O             1 RES     
       4 F            0.0000     1.0000     0.7000 F             1 RES     
       5 N            0.0000    -1.0000     0.7000 N             1 RES     
       6 C            0.0000     0.0000     9.4123 C             1 RES     
       7 H            1.0000     0.0000     8.7123 H             1 RES     
       8 O           -1.0000     0.0000     8.7123 O             1 RES     
       9 F            0.0000     1.0000    10.1123 F             1 RES     
      10 N            0.0000    -1.0000    10.1123 N             1 RES     
      11 C            0.0000     0.0000    18.8246 C             1 RES     
      12 H            1.0000     0.0000    18.1246 H             1 RES     
      13 O           -1.0000     0.0000    18.1246 O             1 RES     
      14 F            0.0000     1.0000    19.5246 F             1 RES     
      15 N            0.0000    -1.0000    19.5246 N             1 RES     
      16 C            0.0000     9.4123     0.0000 C             1 RES     
      17 H            1.0000     9.4123    -0.7000 H             1 RES     
      18 O           -1.0000     9.4123    -0.7000 O             1 RES     
      19 F            0.0000    10.4123     0.7000 F             1 RES     
      20 N            0.0000     8.4123     0.7000 N             1 RES     
      21 C            0.0000     9.4123     9.4123 C             1 RES     
      22 H            1.0000     9.4123     8.7123 H             1 RES     
      23 O           -1.0000     9.4123     8.7123 O             1 RES     
      24 F            0.0000    10.4123    10.1123 F             1 RES     
      25 N            0.0000     8.4123    10.1123 N             1 RES     
      26 C            0.0000     9.4123    18.8246 C             1 RES     
      27 H            1.0000     9.4123    18.1246 H             1 RES     
      28 O           -1.0000     9.4123    18.1246 O             1 RES     
      29 F            0.0000    10.4123    19.5246 F             1 RES     
      30 N            0.0000     8.4123    19.5246 N             1 RES     
      31 C            9.4123     0.0000     0.0000 C             1 RES     
      32 H           10.4123     0.0000    -0.7000 H             1 RES     
      33 O            8.4123     0.0000    -0.7000 O             1 RES     
      34 F            9.4123     1.0000     0.7000 F             1 RES     
      35 N            9.4123    -1.0000     0.7000 N             1 RES     
      36 C            9.4123     0.0000     9.4123 C             1 RES     
      37 H           10.4123     0.0000     8.7123 H             1 RES     
      38 O            8.4123     0.0000     8.7123 O             1 RES     
      39 F            9.4123     1.0000    10.1123 F             1 RES     
      40 N            9.4123    -1.0000    10.1123 N             1 RES     
      41 C            9.4123     0.0000    18.8246 C             1 RES     
      42 H           10.4123     0.0000    18.1246 H             1 RES     
      43 O            8.4123     0.0000    18.1246 O             1 RES     
      44 F            9.4123     1.0000    19.5246 F             1 RES     
      45 N            9.4123    -1.0000    19.5246 N             1 RES     
      46 C            9.4123     9.4123     0.0000 C             1 RES     
      47 H           10.4123     9.4123    -0.7000 H             1 RES     
      48 O            8.4123     9.4123    -0.7000 O             1 RES     
      49 F            9.4123    10.4123     0.7000 F             1 RES     
      50 N            9.4123     8.4123     0.7000 N             1 RES     
      51 C            9.4123     9.4123     9.4123 C             1 RES     
      52 H           10.4123     9.4123     8.7123 H             1 RES     
      53 O            8.4123     9.4123     8.7123 O             1 RES     
      54 F            9.4123    10.4123    10.1123 F             1 RES     
      55 N            9.4123     8.4123    10.1123 N             1 RES     
      56 C            9.4123     9.4123    18.8246 C             1 RES     
      57 H           10.4123     9.4123    18.1246 H             1 RES     
      58 O            8.4123     9.4123    18.1246 O             1 RES     
      59 F            9.4123    10.4123    19.5246 F             1 RES     
      60 N            9.4123     8.4123    19.5246 N             1 RES     
      61 C            6.7126     5.5243     7.9185 C             1 RES     
      62 O            6.7219     6.7543     7.9185 O             1 RES     
      63 O            6.7194     4.6747     9.1547 O             1 RES     
      64 C            6.7039     3.8674     6.7458 C             1 RES     
      65 Br           5.8138     4.4965     6.7458 Br            1 RES     
      66 H            7.5941     4.4965     6.7458 H             1 RES     
      67 C            6.7039     6.4337     5.4882 C             1 RES     
      68 Br           7.5941     5.8046     5.4882 Br            1 RES     
      69 H            5.8138     5.8046     5.4882 H             1 RES     
      70 C            6.7039     3.8674     4.2306 C             1 RES     
      71 Br           5.8138     4.4965     4.2306 Br            1 RES     
      72 H            7.5941     4.4965     4.2306 H             1 RES     
      73 C            6.7039     6.4337     2.9730 C             1 RES     
      74 Br           7.5941     5.8046     2.9730 Br            1 RES     
      75 H            5.8138     5.8046     2.9730 H             1 RES     
      76 C            6.7039     4.7466     1.7725 C             1 RES     
      77 H            7.7739     4.7466     1.7725 H             1 RES     
      78 H            6.3469     4.8360     0.7676 H             1 RES     
      79 H            6.3469     3.8312     2.1978 H             1 RES     
      80 C            6.7126     5.5243    17.3308 C             1 RES     
      81 O            6.7219     6.7543    17.3308 O             1 RES     
      82 O            6.7194     4.6747    18.5670 O             1 RES     
      83 C            6.7039     3.8674    16.1581 C             1 RES     
      84 Br           5.8138     4.4965    16.1581 Br            1 RES     
      85 H            7.5941     4.4965    16.1581 H             1 RES     
      86 C            6.7039     6.4337    14.9005 C             1 RES     
      87 Br           7.5941     5.8046    14.9005 Br            1 RES     
      88 H            5.8138     5.8046    14.9005 H             1 RES     
      89 C            6.7039     3.8674    13.6429 C             1 RES     
      90 Br           5.8138     4.4965    13.6429 Br            1 RES     
      91 H            7.5941     4.4965    13.6429 H             1 RES     
      92 C            6.7039     6.4337    12.3853 C             1 RES     
      93 Br           7.5941     5.8046    12.3853 Br            1 RES     
      94 H            5.8138     5.8046    12.3853 H             1 RES     
      95 C            6.7039     4.7466    11.1848 C             1 RES     
      96 H            7.7739     4.7466    11.1848 H             1 RES     
      97 H            6.3469     4.8360    10.1799 H             1 RES     
      98 H            6.3469     3.8312    11.6101 H             1 RES     
      99 C            6.7126     5.5243    26.7431 C             1 RES     
     100 O            6.7219     6.7543    26.7431 O             1 RES     
     101 O            6.7194     4.6747    27.9793 O             1 RES     
     102 C            6.7039     3.8674    25.5704 C             1 RES     
     103 Br           5.8138     4.4965    25.5704 Br            1 RES     
     104 H            7.5941     4.4965    25.5704 H             1 RES     
     105 C            6.7039     6.4337    24.3128 C             1 RES     
     106 Br           7.5941     5.8046    24.3128 Br            1 RES     
     107 H            5.8138     5.8046    24.3128 H             1 RES     
     108 C            6.7039     3.8674    23.0552 C             1 RES     
     109 Br           5.8138     4.4965    23.0552 Br            1 RES     
     110 H            7.5941     4.4965    23.0552 H             1 RES     
     111 C            6.7039     6.4337    21.7976 C             1 RES     
     112 Br           7.5941     5.8046    21.7976 Br            1 RES     
     113 H            5.8138     5.8046    21.7976 H             1 RES     
     114 C            6.7039     4.7466    20.5971 C             1 RES     
     115 H            7.7739     4.7466    20.5971 H             1 RES     
     116 H            6.3469     4.8360    19.5922 H             1 RES     
     117 H            6.3469     3.8312    21.0224 H             1 RES     
     118 C            6.7126    14.9366     7.9185 C             1 RES     
     119 O            6.7219    16.1666     7.9185 O             1 RES     
     120 O            6.7194    14.0870     9.1547 O             1 RES     
     121 C            6.7039    13.2797     6.7458 C             1 RES     
     122 Br           5.8138    13.9088     6.7458 Br            1 RES     
     123 H            7.5941    13.9088     6.7458 H             1 RES     
     124 C            6.7039    15.8460     5.4882 C             1 RES     
     125 Br           7.5941    15.2169     5.4882 Br            1 RES     
     126 H            5.8138    15.2169     5.4882 H             1 RES     
     127 C            6.7039    13.2797     4.2306 C             1 RES     
     128 Br           5.8138    13.9088     4.2306 Br            1 RES     
     129 H            7.5941    13.9088     4.2306 H             1 RES     
     130 C            6.7039    15.8460     2.9730 C             1 RES     
     131 Br           7.5941    15.2169     2.9730 Br            1 RES     
     132 H            5.8138    15.2169     2.9730 H             1 RES     
     133 C            6.7039    14.1589     1.7725 C             1 RES     
     134 H            7.7739    14.1589     1.7725 H             1 RES     
     135 H            6.3469    14.2483     0.7676 H             1 RES     
     136 H            6.3469    13.2435     2.1978 H             1 RES     
     137 C            6.7126    14.9366    17.3308 C             1 RES     
     138 O            6.7219    16.1666    17.3308 O             1 RES     
     139 O            6.7194    14.0870    18.5670 O             1 RES     
     140 C            6.7039    13.2797    16.1581 C             1 RES     
     141 Br           5.8138    13.9088    16.1581 Br            1 RES     
     142 H            7.5941    13.9088    16.1581 H             1 RES     
     143 C            6.7039    15.8460    14.9005 C             1 RES     
     144 Br           7.5941    15.2169    14.9005 Br            1 RES     
     145 H            5.8138    15.2169    14.9005 H             1 RES     
     146 C            6.7039    13.2797    13.6429 C             1 RES     
     147 Br           5.8138    13.9088    13.6429 Br            1 RES     
     148 H            7.5941    13.9088    13.6429 H             1 RES     
     149 C            6.7039    15.8460    12.3853 C             1 RES     
     150 Br           7.5941    15.2169    12.3853 Br            1 RES     
     151 H            5.8138    15.2169    12.3853 H             1 RES     
     152 C            6.7039    14.1589    11.1848 C             1 RES     
     153 H            7.7739    14.1589    11.1848 H             1 RES     
     154 H            6.3469    14.2483    10.1799 H             1 RES     
     155 H            6.3469    13.2435    11.6101 H             1 RES     
     156 C            6.7126    14.9366    26.7431 C             1 RES     
     157 O            6.7219    16.1666    26.7431 O             1 RES     
     158 O            6.7194    14.0870    27.9793 O             1 RES     
     159 C            6.7039    13.2797    25.5704 C             1 RES     
     160 Br           5.8138    13.9088    25.5704 Br            1 RES     
     161 H            7.5941    13.9088    25.5704 H             1 RES     
     162 C            6.7039    15.8460    24.3128 C             1 RES     
     163 Br           7.5941    15.2169    24.3128 Br            1 RES     
     164 H            5.8138    15.2169    24.3128 H             1 RES     
     165 C            6.7039    13.2797    23.0552 C             1 RES     
     166 Br           5.8138    13.9088    23.0552 Br            1 RES     
     167 H            7.5941    13.9088    23.0552 H             1 RES     
     168 C            6.7039    15.8460    21.7976 C             1 RES     
     169 Br           7.5941    15.2169    21.7976 Br            1 RES     
     170 H            5.8138    15.2169    21.7976 H             1 RES     
     171 C            6.7039    14.1589    20.5971 C             1 RES     
     172 H            7.7739    14.1589    20.5971 H             1 RES     
     173 H            6.3469    14.2483    19.5922 H             1 RES     
     174 H            6.3469    13.2435    21.0224 H             1 RES     
     175 C           16.1249     5.5243     7.9185 C             1 RES     
     176 O           16.1342     6.7543     7.9185 O             1 RES     
     177 O           16.1317     4.6747     9.1547 O             1 RES     
     178 C           16.1162     3.8674     6.7458 C             1 RES     
     179 Br          15.2261     4.4965     6.7458 Br            1 RES     
     180 H           17.0064     4.4965     6.7458 H             1 RES     
     181 C           16.1162     6.4337     5.4882 C             1 RES     
     182 Br          17.0064     5.8046     5.4882 Br            1 RES     
     183 H           15.2261     5.8046     5.4882 H             1 RES     
     184 C           16.1162     3.8674     4.2306 C             1 RES     
     185 Br          15.2261     4.4965     4.2306 Br            1 RES     
     186 H           17.0064     4.4965     4.2306 H             1 RES     
     187 C           16.1162     6.4337     2.9730 C             1 RES     
     188 Br          17.0064     5.8046     2.9730 Br            1 RES     
     189 H           15.2261     5.8046     2.9730 H             1 RES     
     190 C           16.1162     4.7466     1.7725 C             1 RES     
     191 H           17.1862     4.7466     1.7725 H             1 RES     
     192 H           15.7592     4.8360     0.7676 H             1 RES     
     193 H           15.7592     3.8312     2.1978 H             1 RES     
     194 C           16.1249     5.5243    17.3308 C             1 RES     
     195 O           16.1342     6.7543    17.3308 O             1 RES     
     196 O           16.1317     4.6747    18.5670 O             1 RES     
     197 C           16.1162     3.8674    16.1581 C             1 RES     
     198 Br          15.2261     4.4965    16.1581 Br            1 RES     
     199 H           17.0064     4.4965    16.1581 H             1 RES     
     200 C           16.1162     6.4337    14.9005 C             1 RES     
     201 Br          17.0064     5.8046    14.9005 Br            1 RES     
     202 H           15.2261     5.8046    14.9005 H             1 RES     
     203 C           16.1162     3.8674    13.6429 C             1 RES     
     204 Br          15.2261     4.4965    13.6429 Br            1 RES     
     205 H           17.0064     4.4965    13.6429 H             1 RES     
     206 C           16.1162     6.4337    12.3853 C             1 RES     
     207 Br          17.0064     5.8046    12.3853 Br            1 RES     
     208 H           15.2261     5.8046    12.3853 H             1 RES     
     209 C           16.1162     4.7466    11.1848 C             1 RES     
     210 H           17.1862     4.7466    11.1848 H             1 RES     
     211 H           15.7592     4.8360    10.1799 H             1 RES     
     212 H           15.7592     3.8312    11.6101 H             1 RES     
     213 C           16.1249     5.5243    26.7431 C             1 RES     
     214 O           16.1342     6.7543    26.7431 O             1 RES     
     215 O           16.1317     4.6747    27.9793 O             1 RES     
     216 C           16.1162     3.8674    25.5704 C             1 RES     
     217 Br          15.2261     4.4965    25.5704 Br            1 RES     
     218 H           17.0064     4.4965    25.5704 H             1 RES     
     219 C           16.1162     6.4337    24.3128 C             1 RES     
     220 Br          17.0064     5.8046    24.3128 Br            1 RES     
     221 H           15.2261     5.8046    24.3128 H             1 RES     
     222 C           16.1162     3.8674    23.0552 C             1 RES     
     223 Br          15.2261     4.4965    23.0552 Br            1 RES     
     224 H           17.0064     4.4965    23.0552 H             1 RES     
     225 C           16.1162     6.4337    21.7976 C             1 RES     
     226 Br          17.0064     5.8046    21.7976 Br            1 RES     
     227 H           15.2261     5.8046    21.7976 H             1 RES     
     228 C           16.1162     4.7466    20.5971 C             1 RES     
     229 H           17.1862     4.7466    20.5971 H             1 RES     
     230 H           15.7592     4.8360    19.5922 H             1 RES     
     231 H           15.7592     3.8312    21.0224 H             1 RES     
     232 C           16.1249    14.9366     7.9185 C             1 RES     
     233 O           16.1342    16.1666     7.9185 O             1 RES     
     234 O           16.1317    14.0870     9.1547 O             1 RES     
     235 C           16.1162    13.2797     6.7458 C             1 RES     
     236 Br          15.2261    13.9088     6.7458 Br            1 RES     
     237 H           17.0064    13.9088     6.7458 H             1 RES     
     238 C           16.1162    15.8460     5.4882 C             1 RES     
     239 Br          17.0064    15.2169     5.4882 Br            1 RES     
     240 H           15.2261    15.2169     5.4882 H             1 RES     
     241 C           16.1162    13.2797     4.2306 C             1 RES     
     242 Br          15.2261    13.9088     4.2306 Br            1 RES     
     243 H           17.0064    13.9088     4.2306 H             1 RES     
     244 C           16.1162    15.8460     2.9730 C             1 RES     
     245 Br          17.0064    15.2169     2.9730 Br            1 RES     
     246 H           15.2261    15.2169     2.9730 H             1 RES     
     247 C           16.1162    14.1589     1.7725 C             1 RES     
     248 H           17.1862    14.1589     1.7725 H             1 RES     
     249 H           15.7592    14.2483     0.7676 H             1 RES     
     250 H           15.7592    13.2435     2.1978 H             1 RES     
     251 C           16.1249    14.9366    17.3308 C             1 RES     
     252 O           16.1342    16.1666    17.3308 O             1 RES     
     253 O           16.1317    14.0870    18.5670 O             1 RES     
     254 C           16.1162    13.2797    16.1581 C             1 RES     
     255 Br          15.2261    13.9088    16.1581 Br            1 RES     
     256 H           17.0064    13.9088    16.1581 H             1 RES     
     257 C           16.1162    15.8460    14.9005 C             1 RES     
     258 Br          17.0064    15.2169    14.9005 Br            1 RES     
     259 H           15.2261    15.2169    14.9005 H             1 RES     
     260 C           16.1162    13.2797    13.6429 C             1 RES     
     261 Br          15.2261    13.9088    13.6429 Br            1 RES     
     262 H           17.0064    13.9088    13.6429 H             1 RES     
     263 C           16.1162    15.8460    12.3853 C             1 RES     
     264 Br          17.0064    15.2169    12.3853 Br            1 RES     
     265 H           15.2261    15.2169    12.3853 H             1 RES     
     266 C           16.1162    14.1589    11.1848 C             1 RES     
     267 H           17.1862    14.1589    11.1848 H             1 RES     
     268 H           15.7592    14.2483    10.1799 H             1 RES     
     269 H           15.7592    13.2435    11.6101 H             1 RES     
     270 C           16.1249    14.9366    26.7431 C             1 RES     
     271 O           16.1342    16.1666    26.7431 O             1 RES     
     272 O           16.1317    14.0870    27.9793 O             1 RES     
     273 C           16.1162    13.2797    25.5704 C             1 RES     
     274 Br          15.2261    13.9088    25.5704 Br            1 RES     
     275 H           17.0064    13.9088    25.5704 H             1 RES     
     276 C           16.1162    15.8460    24.3128 C             1 RES     
     277 Br          17.0064    15.2169    24.3128 Br            1 RES     
     278 H           15.2261    15.2169    24.3128 H             1 RES     
     279 C           16.1162    13.2797    23.0552 C             1 RES     
     280 Br          15.2261    13.9088    23.0552 Br            1 RES     
     281 H           17.0064    13.9088    23.0552 H             1 RES     
     282 C           16.1162    15.8460    21.7976 C             1 RES     
     283 Br          17.0064    15.2169    21.7976 Br            1 RES     
     284 H           15.2261    15.2169    21.7976 H             1 RES     
     285 C           16.1162    14.1589    20.5971 C             1 RES     
     286 H           17.1862    14.1589    20.5971 H             1 RES     
     287 H           15.7592    14.2483    19.5922 H             1 RES     
     288 H           15.7592    13.2435    21.0224 H             1 RES     
@<TRIPOS>BOND
       1       67       69 1
       2       56       59 1
       3       26       29 1
       4      105      106 1
       5      143      140 1
       6      270      272 1
       7       99      101 1
       8      137      140 1
       9      207      206 1
      10       16       19 1
      11       46       49 1
      12      137      138 1
      13       24       21 1
      14       79       76 1
      15      228      231 1
      16       11       15 1
      17       41       45 1
      18      156      159 1
      19      187      188 1
      20      257      258 1
      21       86       87 1
      22        6       10 1
      23      232      234 1
      24       61       63 1
      25      130      131 1
      26       36       40 1
      27      200      201 1
      28        1        3 1
      29      273      274 1
      30       31       32 1
      31       80       83 1
      32      133      134 1
      33      251      254 1
      34      225      228 1
      35      102      103 1
      36      124      127 1
      37      203      204 1
      38      257      260 1
      39      194      197 1
      40      165      167 1
      41      235      237 1
      42      266      268 1
      43       95       97 1
      44       64       66 1
      45      152      155 1
      46      270      273 1
      47      118      119 1
      48      178      181 1
      49      108      111 1
      50      279      282 1
      51      162      159 1
      52       46       50 1
      53      181      182 1
      54      208      206 1
      55        6        7 1
      56      282      283 1
      57      270      271 1
      58       99      100 1
      59       36       37 1
      60      111      112 1
      61      260      261 1
      62      184      186 1
      63       83       85 1
      64       11       12 1
      65      190      191 1
      66      285      287 1
      67       89       90 1
      68       41       42 1
      69      247      248 1
      70      146      147 1
      71        6        9 1
      72      216      217 1
      73       21       22 1
      74       51       52 1
      75      213      216 1
      76       36       39 1
      77       76       77 1
      78      149      152 1
      79      209      206 1
      80      263      265 1
      81      168      170 1
      82       92       94 1
      83      162      164 1
      84      276      279 1
      85      232      235 1
      86       61       64 1
      87      238      240 1
      88       16       18 1
      89      266      269 1
      90       95       98 1
      91      197      199 1
      92      127      129 1
      93      228      230 1
      94      184      181 1
      95      168      169 1
      96       95       92 1
      97      238      239 1
      98       16       17 1
      99       46       47 1
     100      225      227 1
     101      285      288 1
     102      124      126 1
     103       56       58 1
     104       67       68 1
     105      114      117 1
     106       26       28 1
     107      244      247 1
     108      143      146 1
     109      241      244 1
     110       70       73 1
     111      276      278 1
     112       73       76 1
     113      159      160 1
     114      187      189 1
     115      257      259 1
     116       86       88 1
     117      219      220 1
     118      149      150 1
     119      194      195 1
     120        1        5 1
     121      152      154 1
     122      222      224 1
     123       25       21 1
     124      175      177 1
     125        2        1 1
     126      121      123 1
     127      140      141 1
     128      168      171 1
     129      171      172 1
     130       70       71 1
     131      241      242 1
     132      137      139 1
     133      130      133 1
     134      200      203 1
     135      146      149 1
     136      209      212 1
     137      216      219 1
     138      225      226 1
     139      124      125 1
     140       56       57 1
     141       26       27 1
     142      118      120 1
     143      276      277 1
     144       80       81 1
     145      251      252 1
     146      263      264 1
     147       92       93 1
     148      162      163 1
     149      181      183 1
     150       11       14 1
     151      190      193 1
     152      143      144 1
     153        6        8 1
     154      282      284 1
     155      244      245 1
     156       73       74 1
     157       41       44 1
     158       36       38 1
     159      250      247 1
     160      108      109 1
     161      209      210 1
     162      178      179 1
     163      279      280 1
     164      213      214 1
     165       31       34 1
     166      133      136 1
     167      184      185 1
     168       83       84 1
     169      285      286 1
     170      254      255 1
     171      114      115 1
     172      156      158 1
     173      165      166 1
     174      108      110 1
     175      209      211 1
     176      178      180 1
     177      175      178 1
     178      279      281 1
     179      235      236 1
     180      266      267 1
     181       95       96 1
     182      187      190 1
     183       86       89 1
     184      114      116 1
     185      225      222 1
     186      121      124 1
     187      165      168 1
     188      235      238 1
     189       64       67 1
     190       46       48 1
     191       31       35 1
     192      213      215 1
     193       99      102 1
     194      152      153 1
     195      222      223 1
     196      254      256 1
     197      121      122 1
     198      219      221 1
     199      149      151 1
     200       51       54 1
     201      102      105 1
     202      273      276 1
     203      203      206 1
     204       80       82 1
     205      273      275 1
     206       31       33 1
     207      133      135 1
     208      251      253 1
     209      102      104 1
     210      203      205 1
     211      197      198 1
     212      219      222 1
     213      127      128 1
     214      228      229 1
     215      247      249 1
     216      105      108 1
     217      146      148 1
     218      216      218 1
     219      197      200 1
     220      127      130 1
     221       21       23 1
     222       51       53 1
     223       76       78 1
     224       51       55 1
     225      162      165 1
     226      194      196 1
     227      266      263 1
     228      282      285 1
     229      111      114 1
     230      143      145 1
     231      244      246 1
     232       73       75 1
     233      111      113 1
     234       56       60 1
     235       26       30 1
     236       11       13 1
     237      260      262 1
     238      190      192 1
     239       89       91 1
     240       41       43 1
     241      105      107 1
     242      159      161 1
     243      121      118 1
     244      156      157 1
     245      260      263 1
     246       89       92 1
     247       16       20 1
     248      175      176 1
     249      171      174 1
     250       67       70 1
     251      238      241 1
     252       64       65 1
     253      130      132 1
     254      200      202 1
     255      184      187 1
     256       83       86 1
     257      140      142 1
     258      232      233 1
     259      254      257 1
     260      171      173 1
     261       70       72 1
     262       61       62 1
     263      241      243 1
     264        1        4 1
@<TRIPOS>SUBSTRUCTURE
       1 RES             1 RESIDUE    0 **** ROOT      0
