@<TRIPOS>MOLECULE
RES
12 11 1 0 1
SMALL
NO_CHARGES
@<TRIPOS>CRYSIN
    6.7803     8.7729     7.1470    90.0000    90.0000    90.0000  1  1
@<TRIPOS>ATOM
       1 C            0.0000     0.0000     0.0000 C             1 RES     
       2 Br          -0.8901     0.0000     0.6291 Br            1 RES     
       3 H            0.8901     0.0000     0.6291 H             1 RES     
       4 C           -0.0000    -1.2576    -0.8888 C             1 RES     
       5 Br           0.8901    -1.2576    -1.5179 Br            1 RES     
       6 H           -0.8901    -1.2576    -1.5179 H             1 RES     
       7 C            0.0000    -2.5153    -0.0000 C             1 RES     
       8 Br          -0.8901    -2.5153     0.6291 Br            1 RES     
       9 H            0.8901    -2.5153     0.6291 H             1 RES     
      10 C            0.0000    -3.7729    -0.8888 C             1 RES     
      11 Br           0.8901    -3.7729    -1.5179 Br            1 RES     
      12 H           -0.8901    -3.7729    -1.5179 H             1 RES     
@<TRIPOS>BOND
       1        7        9 1
       2        4        6 1
       3        7        8 1
       4       10       12 1
       5        1        4 1
       6        7        4 1
       7        4        5 1
       8        7       10 1
       9        1        2 1
      10        1        3 1
      11       10       11 1
@<TRIPOS>SUBSTRUCTURE
       1 RES             1 RESIDUE    0 **** ROOT      0
