@<TRIPOS>MOLECULE
RES
125 0 1 0 1
SMALL
NO_CHARGES
@<TRIPOS>CRYSIN
   18.4360    18.4360    18.4360    90.0000    90.0000    90.0000  1  1
@<TRIPOS>ATOM
       1 Te           0.0000     0.0000     0.0000 Te            1 RES     
       2 Se           0.0000     0.0000     3.3590 Se            1 RES     
       3 Po           0.0000     0.0000     6.7180 Po            1 RES     
       4 Po           0.0000     0.0000    10.0770 Po            1 RES     
       5 Po           0.0000     0.0000    13.4360 Po            1 RES     
       6 Po           0.0000     3.3590     0.0000 Po            1 RES     
       7 Po           0.0000     3.3590     3.3590 Po            1 RES     
       8 Po           0.0000     3.3590     6.7180 Po            1 RES     
       9 Po           0.0000     3.3590    10.0770 Po            1 RES     
      10 Po           0.0000     3.3590    13.4360 Po            1 RES     
      11 Po           0.0000     6.7180     0.0000 Po            1 RES     
      12 Po           0.0000     6.7180     3.3590 Po            1 RES     
      13 Po           0.0000     6.7180     6.7180 Po            1 RES     
      14 Po           0.0000     6.7180    10.0770 Po            1 RES     
      15 Po           0.0000     6.7180    13.4360 Po            1 RES     
      16 Po           0.0000    10.0770     0.0000 Po            1 RES     
      17 Po           0.0000    10.0770     3.3590 Po            1 RES     
      18 Po           0.0000    10.0770     6.7180 Po            1 RES     
      19 Po           0.0000    10.0770    10.0770 Po            1 RES     
      20 Po           0.0000    10.0770    13.4360 Po            1 RES     
      21 Po           0.0000    13.4360     0.0000 Po            1 RES     
      22 Po           0.0000    13.4360     3.3590 Po            1 RES     
      23 Po           0.0000    13.4360     6.7180 Po            1 RES     
      24 Po           0.0000    13.4360    10.0770 Po            1 RES     
      25 Po           0.0000    13.4360    13.4360 Po            1 RES     
      26 Po           3.3590     0.0000     0.0000 Po            1 RES     
      27 Po           3.3590     0.0000     3.3590 Po            1 RES     
      28 Po           3.3590     0.0000     6.7180 Po            1 RES     
      29 Po           3.3590     0.0000    10.0770 Po            1 RES     
      30 Po           3.3590     0.0000    13.4360 Po            1 RES     
      31 Po           3.3590     3.3590     0.0000 Po            1 RES     
      32 Lv           3.3590     3.3590     3.3590 Lv            1 RES     
      33 Po           3.3590     3.3590     6.7180 Po            1 RES     
      34 Po           3.3590     3.3590    10.0770 Po            1 RES     
      35 Po           3.3590     3.3590    13.4360 Po            1 RES     
      36 Po           3.3590     6.7180     0.0000 Po            1 RES     
      37 Po           3.3590     6.7180     3.3590 Po            1 RES     
      38 Po           3.3590     6.7180     6.7180 Po            1 RES     
      39 Po           3.3590     6.7180    10.0770 Po            1 RES     
      40 Po           3.3590     6.7180    13.4360 Po            1 RES     
      41 Po           3.3590    10.0770     0.0000 Po            1 RES     
      42 Po           3.3590    10.0770     3.3590 Po            1 RES     
      43 Po           3.3590    10.0770     6.7180 Po            1 RES     
      44 Po           3.3590    10.0770    10.0770 Po            1 RES     
      45 Po           3.3590    10.0770    13.4360 Po            1 RES     
      46 Po           3.3590    13.4360     0.0000 Po            1 RES     
      47 Po           3.3590    13.4360     3.3590 Po            1 RES     
      48 Po           3.3590    13.4360     6.7180 Po            1 RES     
      49 Po           3.3590    13.4360    10.0770 Po            1 RES     
      50 Po           3.3590    13.4360    13.4360 Po            1 RES     
      51 Po           6.7180     0.0000     0.0000 Po            1 RES     
      52 Po           6.7180     0.0000     3.3590 Po            1 RES     
      53 Po           6.7180     0.0000     6.7180 Po            1 RES     
      54 Po           6.7180     0.0000    10.0770 Po            1 RES     
      55 Po           6.7180     0.0000    13.4360 Po            1 RES     
      56 Po           6.7180     3.3590     0.0000 Po            1 RES     
      57 Po           6.7180     3.3590     3.3590 Po            1 RES     
      58 Po           6.7180     3.3590     6.7180 Po            1 RES     
      59 Po           6.7180     3.3590    10.0770 Po            1 RES     
      60 Po           6.7180     3.3590    13.4360 Po            1 RES     
      61 Po           6.7180     6.7180     0.0000 Po            1 RES     
      62 Po           6.7180     6.7180     3.3590 Po            1 RES     
      63 Po           6.7180     6.7180     6.7180 Po            1 RES     
      64 Po           6.7180     6.7180    10.0770 Po            1 RES     
      65 Po           6.7180     6.7180    13.4360 Po            1 RES     
      66 Po           6.7180    10.0770     0.0000 Po            1 RES     
      67 Po           6.7180    10.0770     3.3590 Po            1 RES     
      68 Po           6.7180    10.0770     6.7180 Po            1 RES     
      69 Po           6.7180    10.0770    10.0770 Po            1 RES     
      70 Po           6.7180    10.0770    13.4360 Po            1 RES     
      71 Po           6.7180    13.4360     0.0000 Po            1 RES     
      72 Po           6.7180    13.4360     3.3590 Po            1 RES     
      73 Po           6.7180    13.4360     6.7180 Po            1 RES     
      74 Po           6.7180    13.4360    10.0770 Po            1 RES     
      75 Po           6.7180    13.4360    13.4360 Po            1 RES     
      76 Po          10.0770     0.0000     0.0000 Po            1 RES     
      77 Po          10.0770     0.0000     3.3590 Po            1 RES     
      78 Po          10.0770     0.0000     6.7180 Po            1 RES     
      79 Po          10.0770     0.0000    10.0770 Po            1 RES     
      80 Po          10.0770     0.0000    13.4360 Po            1 RES     
      81 Po          10.0770     3.3590     0.0000 Po            1 RES     
      82 Po          10.0770     3.3590     3.3590 Po            1 RES     
      83 Po          10.0770     3.3590     6.7180 Po            1 RES     
      84 Po          10.0770     3.3590    10.0770 Po            1 RES     
      85 Po          10.0770     3.3590    13.4360 Po            1 RES     
      86 Po          10.0770     6.7180     0.0000 Po            1 RES     
      87 Po          10.0770     6.7180     3.3590 Po            1 RES     
      88 Po          10.0770     6.7180     6.7180 Po            1 RES     
      89 Po          10.0770     6.7180    10.0770 Po            1 RES     
      90 Po          10.0770     6.7180    13.4360 Po            1 RES     
      91 Po          10.0770    10.0770     0.0000 Po            1 RES     
      92 Po          10.0770    10.0770     3.3590 Po            1 RES     
      93 Po          10.0770    10.0770     6.7180 Po            1 RES     
      94 Po          10.0770    10.0770    10.0770 Po            1 RES     
      95 Po          10.0770    10.0770    13.4360 Po            1 RES     
      96 Po          10.0770    13.4360     0.0000 Po            1 RES     
      97 Po          10.0770    13.4360     3.3590 Po            1 RES     
      98 Po          10.0770    13.4360     6.7180 Po            1 RES     
      99 Po          10.0770    13.4360    10.0770 Po            1 RES     
     100 Po          10.0770    13.4360    13.4360 Po            1 RES     
     101 Po          13.4360     0.0000     0.0000 Po            1 RES     
     102 Po          13.4360     0.0000     3.3590 Po            1 RES     
     103 Po          13.4360     0.0000     6.7180 Po            1 RES     
     104 Po          13.4360     0.0000    10.0770 Po            1 RES     
     105 Po          13.4360     0.0000    13.4360 Po            1 RES     
     106 Po          13.4360     3.3590     0.0000 Po            1 RES     
     107 Po          13.4360     3.3590     3.3590 Po            1 RES     
     108 Po          13.4360     3.3590     6.7180 Po            1 RES     
     109 Po          13.4360     3.3590    10.0770 Po            1 RES     
     110 Po          13.4360     3.3590    13.4360 Po            1 RES     
     111 Po          13.4360     6.7180     0.0000 Po            1 RES     
     112 Po          13.4360     6.7180     3.3590 Po            1 RES     
     113 Po          13.4360     6.7180     6.7180 Po            1 RES     
     114 Po          13.4360     6.7180    10.0770 Po            1 RES     
     115 Po          13.4360     6.7180    13.4360 Po            1 RES     
     116 Po          13.4360    10.0770     0.0000 Po            1 RES     
     117 Po          13.4360    10.0770     3.3590 Po            1 RES     
     118 Po          13.4360    10.0770     6.7180 Po            1 RES     
     119 Po          13.4360    10.0770    10.0770 Po            1 RES     
     120 Po          13.4360    10.0770    13.4360 Po            1 RES     
     121 Po          13.4360    13.4360     0.0000 Po            1 RES     
     122 Po          13.4360    13.4360     3.3590 Po            1 RES     
     123 Po          13.4360    13.4360     6.7180 Po            1 RES     
     124 Po          13.4360    13.4360    10.0770 Po            1 RES     
     125 Po          13.4360    13.4360    13.4360 Po            1 RES     
@<TRIPOS>BOND
@<TRIPOS>SUBSTRUCTURE
       1 RES             1 RESIDUE    0 **** ROOT      0
