@<TRIPOS>MOLECULE
RES
8 0 1 0 1
SMALL
NO_CHARGES
@<TRIPOS>CRYSIN
    8.3590     8.3590     8.3590    90.0000    90.0000    90.0000  1  1
@<TRIPOS>ATOM
       1 Te           0.0000     0.0000     0.0000 Te            1 RES     
       2 Se           3.3590    -0.0000     0.0000 Se            1 RES     
       3 Po          -0.0000     0.0000     3.3590 Po            1 RES     
       4 Po           3.3590     0.0000     3.3590 Po            1 RES     
       5 Po           0.0000     3.3590    -0.0000 Po            1 RES     
       6 Po           3.3590     3.3590     0.0000 Po            1 RES     
       7 Po           0.0000     3.3590     3.3590 Po            1 RES     
       8 Lv           3.3590     3.3590     3.3590 Lv            1 RES     
@<TRIPOS>BOND
@<TRIPOS>SUBSTRUCTURE
       1 RES             1 RESIDUE    0 **** ROOT      0
